<?xml version="1.0" encoding="UTF-8"?>

<!-- generated on 2022-02-19 14:50:20 by Eclipse SUMO netedit Version 1.12.0
<configuration xmlns:xsi="http://www.w3.org/2001/XMLSchema-instance" xsi:noNamespaceSchemaLocation="http://sumo.dlr.de/xsd/netconvertConfiguration.xsd">

    <input>
        <sumo-net-file value="C:\Program%20Files%20(x86)\Eclipse\Sumo\RL\dqn.net.xml"/>
    </input>

    <output>
        <output-file value="C:\Program%20Files%20(x86)\Eclipse\Sumo\RL\dqn.net.xml"/>
    </output>

    <processing>
        <geometry.min-radius.fix.railways value="false"/>
        <geometry.max-grade.fix value="false"/>
        <offset.disable-normalization value="true"/>
        <lefthand value="false"/>
    </processing>

    <junctions>
        <no-internal-links value="true"/>
        <no-turnarounds value="true"/>
        <junctions.corner-detail value="5"/>
        <junctions.limit-turn-speed value="5.5"/>
        <rectangular-lane-cut value="false"/>
    </junctions>

    <pedestrian>
        <walkingareas value="false"/>
    </pedestrian>

    <report>
        <aggregate-warnings value="5"/>
    </report>

</configuration>
-->

<net version="1.9" junctionCornerDetail="5" limitTurnSpeed="5.50" xmlns:xsi="http://www.w3.org/2001/XMLSchema-instance" xsi:noNamespaceSchemaLocation="http://sumo.dlr.de/xsd/net_file.xsd">

    <location netOffset="0.00,0.00" convBoundary="0.00,0.00,600.00,200.00" origBoundary="-10000000000.00,-10000000000.00,10000000000.00,10000000000.00" projParameter="!"/>

    <edge id="-E0" from="J1" to="J0" priority="-1">
        <lane id="-E0_0" index="0" speed="15.00" length="100.00" shape="94.02,1.60 0.00,1.60"/>
    </edge>
    <edge id="-E1" from="J2" to="J1" priority="-1">
        <lane id="-E1_0" index="0" speed="15.00" length="224.02" shape="194.79,193.17 104.65,12.88"/>
    </edge>
    <edge id="-E2" from="J3" to="J1" priority="-1">
        <lane id="-E2_0" index="0" speed="15.00" length="223.61" shape="291.74,97.66 114.99,9.28"/>
    </edge>
    <edge id="-E3" from="J4" to="J1" priority="-1">
        <lane id="-E3_0" index="0" speed="15.00" length="300.00" shape="388.27,1.60 117.56,1.60"/>
    </edge>
    <edge id="-E4" from="J3" to="J2" priority="-1">
        <lane id="-E4_0" index="0" speed="15.00" length="133.37" shape="295.16,107.10 213.54,188.72"/>
    </edge>
    <edge id="-E5" from="J4" to="J3" priority="-1">
        <lane id="-E5_0" index="0" speed="15.00" length="141.42" shape="392.84,9.42 309.42,92.84"/>
    </edge>
    <edge id="-E6" from="J5" to="J2" priority="-1">
        <lane id="-E6_0" index="0" speed="15.00" length="310.36" shape="478.00,109.02 217.16,195.97"/>
    </edge>
    <edge id="-E7" from="J5" to="J3" priority="-1">
        <lane id="-E7_0" index="0" speed="10.00" length="200.00" shape="476.28,101.60 311.73,101.60"/>
    </edge>
    <edge id="-E8" from="J5" to="J4" priority="-1">
        <lane id="-E8_0" index="0" speed="15.00" length="141.42" shape="490.58,92.84 403.96,6.22"/>
    </edge>
    <edge id="-E9" from="J6" to="J5" priority="-1">
        <lane id="-E9_0" index="0" speed="15.00" length="100.00" shape="600.00,101.60 505.33,101.60"/>
    </edge>
    <edge id="E0" from="J0" to="J1" priority="-1">
        <lane id="E0_0" index="0" speed="15.00" length="100.00" shape="0.00,-1.60 94.02,-1.60"/>
    </edge>
    <edge id="E1" from="J1" to="J2" priority="-1">
        <lane id="E1_0" index="0" speed="15.00" length="224.02" shape="107.51,11.45 197.66,191.74"/>
    </edge>
    <edge id="E2" from="J1" to="J3" priority="-1">
        <lane id="E2_0" index="0" speed="15.00" length="223.61" shape="116.42,6.42 293.17,94.79"/>
    </edge>
    <edge id="E3" from="J1" to="J4" priority="-1">
        <lane id="E3_0" index="0" speed="15.00" length="300.00" shape="117.56,-1.60 388.27,-1.60"/>
    </edge>
    <edge id="E4" from="J2" to="J3" priority="-1">
        <lane id="E4_0" index="0" speed="15.00" length="133.37" shape="211.28,186.46 292.90,104.84"/>
    </edge>
    <edge id="E5" from="J3" to="J4" priority="-1">
        <lane id="E5_0" index="0" speed="15.00" length="141.42" shape="307.16,90.58 390.58,7.16"/>
    </edge>
    <edge id="E6" from="J2" to="J5" priority="-1">
        <lane id="E6_0" index="0" speed="15.00" length="310.36" shape="216.15,192.93 476.99,105.98"/>
    </edge>
    <edge id="E7" from="J3" to="J5" priority="-1">
        <lane id="E7_0" index="0" speed="10.00" length="200.00" shape="311.73,98.40 476.28,98.40"/>
    </edge>
    <edge id="E8" from="J4" to="J5" priority="-1">
        <lane id="E8_0" index="0" speed="15.00" length="141.42" shape="406.22,3.96 492.84,90.58"/>
    </edge>
    <edge id="E9" from="J5" to="J6" priority="-1">
        <lane id="E9_0" index="0" speed="15.00" length="100.00" shape="505.33,98.40 600.00,98.40"/>
    </edge>

    <junction id="J0" type="priority" x="0.00" y="0.00" incLanes="-E0_0" intLanes="" shape="0.00,0.00 0.00,3.20 0.00,0.00">
        <request index="0" response="0" foes="0"/>
    </junction>
    <junction id="J1" type="priority" x="100.00" y="0.00" incLanes="-E1_0 -E2_0 -E3_0 E0_0" intLanes="" shape="103.22,13.60 108.94,10.73 108.74,9.14 109.38,8.94 110.52,9.13 112.15,9.73 114.27,10.71 117.13,4.99 117.56,3.20 117.56,-3.20 94.02,-3.20 94.02,3.20 96.82,4.36 98.32,5.80 99.89,7.82 101.52,10.42">
        <request index="0"  response="000100010000" foes="000100010000"/>
        <request index="1"  response="111100010000" foes="111100110000"/>
        <request index="2"  response="110011010000" foes="110011110000"/>
        <request index="3"  response="100010000000" foes="100010000000"/>
        <request index="4"  response="100110000000" foes="100110000111"/>
        <request index="5"  response="011110000110" foes="011110000110"/>
        <request index="6"  response="000000000000" foes="010000000100"/>
        <request index="7"  response="000000000000" foes="110000111100"/>
        <request index="8"  response="000000000000" foes="110000110011"/>
        <request index="9"  response="000000000000" foes="000000100010"/>
        <request index="10" response="000111000000" foes="000111100110"/>
        <request index="11" response="000110000000" foes="000110011110"/>
    </junction>
    <junction id="J2" type="priority" x="200.00" y="200.00" incLanes="-E6_0 -E4_0 E1_0" intLanes="" shape="217.67,197.48 215.64,191.41 214.68,189.85 210.15,185.32 207.27,188.06 204.80,190.08 202.75,191.38 201.11,191.98 199.89,191.86 199.09,191.02 193.36,193.88 195.43,196.77 198.29,198.74 201.95,199.80 206.39,199.94 211.63,199.17">
        <request index="0" response="000000" foes="001000"/>
        <request index="1" response="110000" foes="111000"/>
        <request index="2" response="100000" foes="100000"/>
        <request index="3" response="100011" foes="100011"/>
        <request index="4" response="000000" foes="000010"/>
        <request index="5" response="000000" foes="001110"/>
    </junction>
    <junction id="J3" type="priority" x="300.00" y="100.00" incLanes="-E7_0 -E5_0 E2_0 E4_0" intLanes="" shape="311.73,103.20 311.73,96.80 309.82,96.49 309.43,96.09 309.43,95.54 309.80,94.84 310.55,93.97 306.03,89.45 303.84,91.40 301.72,92.84 299.66,93.76 297.67,94.15 295.74,94.02 293.88,93.36 291.02,99.09 292.69,100.40 293.00,101.14 292.94,101.93 292.53,102.79 291.77,103.71 296.29,108.23 298.12,106.69 300.25,105.44 302.67,104.46 305.39,103.76 308.41,103.34">
        <request index="0"  response="000000010000" foes="000100010000"/>
        <request index="1"  response="111000110000" foes="111100110000"/>
        <request index="2"  response="110011110000" foes="110011110000"/>
        <request index="3"  response="000000000000" foes="100010000000"/>
        <request index="4"  response="000000000000" foes="100110000111"/>
        <request index="5"  response="011000000000" foes="011110000110"/>
        <request index="6"  response="010000000000" foes="010000000100"/>
        <request index="7"  response="110000111000" foes="110000111100"/>
        <request index="8"  response="110000110011" foes="110000110011"/>
        <request index="9"  response="000000000000" foes="000000100010"/>
        <request index="10" response="000000000000" foes="000111100110"/>
        <request index="11" response="000000011000" foes="000110011110"/>
    </junction>
    <junction id="J4" type="priority" x="400.00" y="0.00" incLanes="-E8_0 E3_0 E5_0" intLanes="" shape="402.83,7.35 407.35,2.83 405.15,0.99 402.55,-0.52 399.57,-1.69 396.19,-2.53 392.43,-3.03 388.27,-3.20 388.27,3.20 390.18,3.51 390.57,3.91 390.57,4.46 390.20,5.16 389.45,6.03 393.97,10.55 395.89,8.79 397.63,7.52 399.20,6.74 400.59,6.45 401.80,6.66">
        <request index="0" response="000000" foes="001000"/>
        <request index="1" response="000000" foes="111000"/>
        <request index="2" response="000000" foes="100000"/>
        <request index="3" response="000011" foes="100011"/>
        <request index="4" response="000010" foes="000010"/>
        <request index="5" response="001110" foes="001110"/>
    </junction>
    <junction id="J5" type="priority" x="500.00" y="100.00" incLanes="-E9_0 E8_0 E7_0 E6_0" intLanes="" shape="505.33,103.20 505.33,96.80 502.29,95.98 500.49,94.96 498.50,93.53 496.33,91.69 493.97,89.45 489.45,93.97 489.24,95.54 487.57,96.09 484.85,96.49 481.09,96.72 476.28,96.80 476.28,103.20 476.49,104.46 478.51,110.54 484.11,108.47 488.23,106.68 491.65,105.22 495.13,104.13 499.43,103.44">
        <request index="0"  response="000000000000" foes="000100010000"/>
        <request index="1"  response="100000000000" foes="111100110000"/>
        <request index="2"  response="110000000000" foes="110011110000"/>
        <request index="3"  response="100010000000" foes="100010000000"/>
        <request index="4"  response="100010000111" foes="100110000111"/>
        <request index="5"  response="011010000110" foes="011110000110"/>
        <request index="6"  response="010000000100" foes="010000000100"/>
        <request index="7"  response="110000000100" foes="110000111100"/>
        <request index="8"  response="110000110011" foes="110000110011"/>
        <request index="9"  response="000000000010" foes="000000100010"/>
        <request index="10" response="000000000010" foes="000111100110"/>
        <request index="11" response="000000000000" foes="000110011110"/>
    </junction>
    <junction id="J6" type="dead_end" x="600.00" y="100.00" incLanes="E9_0" intLanes="" shape="600.00,100.00 600.00,96.80 600.00,100.00"/>

    <connection from="-E0" to="E0" fromLane="0" toLane="0" dir="t" state="M"/>
    <connection from="-E1" to="-E0" fromLane="0" toLane="0" dir="r" state="m"/>
    <connection from="-E1" to="E3" fromLane="0" toLane="0" dir="l" state="m"/>
    <connection from="-E1" to="E2" fromLane="0" toLane="0" dir="l" state="m"/>
    <connection from="-E2" to="E1" fromLane="0" toLane="0" dir="r" state="m"/>
    <connection from="-E2" to="-E0" fromLane="0" toLane="0" dir="s" state="m"/>
    <connection from="-E2" to="E3" fromLane="0" toLane="0" dir="l" state="m"/>
    <connection from="-E3" to="E2" fromLane="0" toLane="0" dir="r" state="M"/>
    <connection from="-E3" to="E1" fromLane="0" toLane="0" dir="r" state="M"/>
    <connection from="-E3" to="-E0" fromLane="0" toLane="0" dir="s" state="M"/>
    <connection from="-E4" to="E6" fromLane="0" toLane="0" dir="r" state="m"/>
    <connection from="-E4" to="-E1" fromLane="0" toLane="0" dir="l" state="m"/>
    <connection from="-E5" to="E7" fromLane="0" toLane="0" dir="r" state="M"/>
    <connection from="-E5" to="-E4" fromLane="0" toLane="0" dir="s" state="M"/>
    <connection from="-E5" to="-E2" fromLane="0" toLane="0" dir="l" state="m"/>
    <connection from="-E6" to="-E1" fromLane="0" toLane="0" dir="L" state="M"/>
    <connection from="-E6" to="E4" fromLane="0" toLane="0" dir="l" state="m"/>
    <connection from="-E7" to="-E4" fromLane="0" toLane="0" dir="r" state="m"/>
    <connection from="-E7" to="-E2" fromLane="0" toLane="0" dir="s" state="m"/>
    <connection from="-E7" to="E5" fromLane="0" toLane="0" dir="l" state="m"/>
    <connection from="-E8" to="-E5" fromLane="0" toLane="0" dir="r" state="M"/>
    <connection from="-E8" to="-E3" fromLane="0" toLane="0" dir="R" state="M"/>
    <connection from="-E9" to="-E6" fromLane="0" toLane="0" dir="R" state="M"/>
    <connection from="-E9" to="-E7" fromLane="0" toLane="0" dir="s" state="m"/>
    <connection from="-E9" to="-E8" fromLane="0" toLane="0" dir="l" state="m"/>
    <connection from="E0" to="E3" fromLane="0" toLane="0" dir="s" state="M"/>
    <connection from="E0" to="E2" fromLane="0" toLane="0" dir="L" state="m"/>
    <connection from="E0" to="E1" fromLane="0" toLane="0" dir="l" state="m"/>
    <connection from="E1" to="E4" fromLane="0" toLane="0" dir="r" state="M"/>
    <connection from="E1" to="E6" fromLane="0" toLane="0" dir="R" state="M"/>
    <connection from="E2" to="E5" fromLane="0" toLane="0" dir="r" state="m"/>
    <connection from="E2" to="E7" fromLane="0" toLane="0" dir="s" state="m"/>
    <connection from="E2" to="-E4" fromLane="0" toLane="0" dir="l" state="m"/>
    <connection from="E3" to="E8" fromLane="0" toLane="0" dir="L" state="M"/>
    <connection from="E3" to="-E5" fromLane="0" toLane="0" dir="l" state="m"/>
    <connection from="E4" to="-E2" fromLane="0" toLane="0" dir="r" state="M"/>
    <connection from="E4" to="E5" fromLane="0" toLane="0" dir="s" state="M"/>
    <connection from="E4" to="E7" fromLane="0" toLane="0" dir="l" state="m"/>
    <connection from="E5" to="-E3" fromLane="0" toLane="0" dir="r" state="m"/>
    <connection from="E5" to="E8" fromLane="0" toLane="0" dir="l" state="m"/>
    <connection from="E6" to="-E7" fromLane="0" toLane="0" dir="r" state="m"/>
    <connection from="E6" to="-E8" fromLane="0" toLane="0" dir="r" state="m"/>
    <connection from="E6" to="E9" fromLane="0" toLane="0" dir="s" state="M"/>
    <connection from="E7" to="-E8" fromLane="0" toLane="0" dir="r" state="m"/>
    <connection from="E7" to="E9" fromLane="0" toLane="0" dir="s" state="m"/>
    <connection from="E7" to="-E6" fromLane="0" toLane="0" dir="l" state="m"/>
    <connection from="E8" to="E9" fromLane="0" toLane="0" dir="r" state="m"/>
    <connection from="E8" to="-E6" fromLane="0" toLane="0" dir="l" state="m"/>
    <connection from="E8" to="-E7" fromLane="0" toLane="0" dir="l" state="m"/>

</net>
