<configuration>
    <input>
        <net-file value="rl1.net.xml"/>
        <additional-files value="rl2.det.xml"/>
        <gui-settings-file value="rl1.settings.xml"/>
    </input>
    <time>
        <begin value="0"/>
        <end value="10000"/>
    </time>
</configuration>
