<additional>
 <e1Detector id="-D0" lane="-E0_0" pos="-10" freq="30" file="cross.out" friendlyPos="x"/>
 <e1Detector id="-D1" lane="-E1_0" pos="-10" freq="30" file="cross.out" friendlyPos="x"/>
 <e1Detector id="-D10" lane="-E10_0" pos="-10" freq="30" file="cross.out" friendlyPos="x"/>
 <e1Detector id="-D11" lane="-E11_0" pos="-10" freq="30" file="cross.out" friendlyPos="x"/>
 <e1Detector id="-D12" lane="-E12_0" pos="-10" freq="30" file="cross.out" friendlyPos="x"/>
 <e1Detector id="-D13" lane="-E13_0" pos="-10" freq="30" file="cross.out" friendlyPos="x"/>
 <e1Detector id="-D14" lane="-E14_0" pos="-10" freq="30" file="cross.out" friendlyPos="x"/>
 <e1Detector id="-D15" lane="-E15_0" pos="-10" freq="30" file="cross.out" friendlyPos="x"/>
 <e1Detector id="-D16" lane="-E16_0" pos="-10" freq="30" file="cross.out" friendlyPos="x"/>
 <e1Detector id="-D17" lane="-E17_0" pos="-10" freq="30" file="cross.out" friendlyPos="x"/>
 <e1Detector id="-D18" lane="-E18_0" pos="-10" freq="30" file="cross.out" friendlyPos="x"/>
 <e1Detector id="-D19" lane="-E19_0" pos="-10" freq="30" file="cross.out" friendlyPos="x"/>
 <e1Detector id="-D2" lane="-E2_0" pos="-10" freq="30" file="cross.out" friendlyPos="x"/>
 <e1Detector id="-D20" lane="-E20_0" pos="-10" freq="30" file="cross.out" friendlyPos="x"/>
 <e1Detector id="-D3" lane="-E3_0" pos="-10" freq="30" file="cross.out" friendlyPos="x"/>
 <e1Detector id="-D4" lane="-E4_0" pos="-10" freq="30" file="cross.out" friendlyPos="x"/>
 <e1Detector id="-D5" lane="-E5_0" pos="-10" freq="30" file="cross.out" friendlyPos="x"/>
 <e1Detector id="-D6" lane="-E6_0" pos="-10" freq="30" file="cross.out" friendlyPos="x"/>
 <e1Detector id="-D7" lane="-E7_0" pos="-10" freq="30" file="cross.out" friendlyPos="x"/>
 <e1Detector id="-D8" lane="-E8_0" pos="-10" freq="30" file="cross.out" friendlyPos="x"/>
 <e1Detector id="-D9" lane="-E9_0" pos="-10" freq="30" file="cross.out" friendlyPos="x"/>
 <e1Detector id="D0" lane="E0_0" pos="-10" freq="30" file="cross.out" friendlyPos="x"/>
 <e1Detector id="D1" lane="E1_0" pos="-10" freq="30" file="cross.out" friendlyPos="x"/>
 <e1Detector id="D10" lane="E10_0" pos="-10" freq="30" file="cross.out" friendlyPos="x"/>
 <e1Detector id="D11" lane="E11_0" pos="-10" freq="30" file="cross.out" friendlyPos="x"/>
 <e1Detector id="D12" lane="E12_0" pos="-10" freq="30" file="cross.out" friendlyPos="x"/>
 <e1Detector id="D13" lane="E13_0" pos="-10" freq="30" file="cross.out" friendlyPos="x"/>
 <e1Detector id="D14" lane="E14_0" pos="-10" freq="30" file="cross.out" friendlyPos="x"/>
 <e1Detector id="D15" lane="E15_0" pos="-10" freq="30" file="cross.out" friendlyPos="x"/>
 <e1Detector id="D16" lane="E16_0" pos="-10" freq="30" file="cross.out" friendlyPos="x"/>
 <e1Detector id="D17" lane="E17_0" pos="-10" freq="30" file="cross.out" friendlyPos="x"/>
 <e1Detector id="D18" lane="E18_0" pos="-10" freq="30" file="cross.out" friendlyPos="x"/>
 <e1Detector id="D19" lane="E19_0" pos="-10" freq="30" file="cross.out" friendlyPos="x"/>
 <e1Detector id="D2" lane="E2_0" pos="-10" freq="30" file="cross.out" friendlyPos="x"/>
 <e1Detector id="D20" lane="E20_0" pos="-10" freq="30" file="cross.out" friendlyPos="x"/>
 <e1Detector id="D3" lane="E3_0" pos="-10" freq="30" file="cross.out" friendlyPos="x"/>
 <e1Detector id="D4" lane="E4_0" pos="-10" freq="30" file="cross.out" friendlyPos="x"/>
 <e1Detector id="D5" lane="E5_0" pos="-10" freq="30" file="cross.out" friendlyPos="x"/>
 <e1Detector id="D6" lane="E6_0" pos="-10" freq="30" file="cross.out" friendlyPos="x"/>
 <e1Detector id="D7" lane="E7_0" pos="-10" freq="30" file="cross.out" friendlyPos="x"/>
 <e1Detector id="D8" lane="E8_0" pos="-10" freq="30" file="cross.out" friendlyPos="x"/>
 <e1Detector id="D9" lane="E9_0" pos="-10" freq="30" file="cross.out" friendlyPos="x"/>
</additional>
