<additional>
        <vTypeDistribution id="type1" >
               <vType id="normal_car" length="5.0" accel="2.0" decel="5.0" maxSpeed="15.0" color="0,0,1" sigma="0.5" guiShape="passenger/van" probability = "0.8">
                        <param key="has.vehroute.device" value="false"/>
               </vType>
               <vType id="truck" length="8.0" accel="1.0" decel="5.0" maxSpeed="5.0" color="1,0,0" sigma="0.5" guiShape="truck" probability = "0.2">
                       <param key="has.vehroute.device" value="false"/>
               </vType>
        </vTypeDistribution>  
                         
</additional>
