<?xml version="1.0" encoding="UTF-8"?>

<!-- generated on 2022-02-18 15:30:25 by Eclipse SUMO duarouter Version 1.12.0
<configuration xmlns:xsi="http://www.w3.org/2001/XMLSchema-instance" xsi:noNamespaceSchemaLocation="http://sumo.dlr.de/xsd/duarouterConfiguration.xsd">

    <input>
        <net-file value="./RL/dqn.net.xml"/>
        <additional-files value="./RL/dqn.add.xml"/>
        <route-files value="./RL/dqn.trip.xml"/>
    </input>

    <output>
        <output-file value="./RL/dqnrandom.rou.xml"/>
        <alternatives-output value="./RL/dqnrandom.rou.alt.xml"/>
    </output>

    <time>
        <begin value="0"/>
        <end value="3600"/>
    </time>

    <report>
        <no-warnings value="true"/>
        <ignore-errors value="true"/>
        <no-step-log value="true"/>
    </report>

</configuration>
-->

<routes xmlns:xsi="http://www.w3.org/2001/XMLSchema-instance" xsi:noNamespaceSchemaLocation="http://sumo.dlr.de/xsd/routes_file.xsd">
    <vType id="truck" length="8.00" maxSpeed="5.00" probability="0.20" guiShape="truck" color="red" accel="1.0" decel="5.0" sigma="0.5">
        <param key="has.vehroute.device" value="false"/>
    </vType>
    <vehicle id="0" type="truck" depart="0.00">
        <route edges="-E8 -E5 -E2"/>
    </vehicle>
    <vType id="normal_car" length="5.00" maxSpeed="15.00" probability="0.80" guiShape="passenger/van" color="blue" accel="2.0" decel="5.0" sigma="0.5">
        <param key="has.vehroute.device" value="false"/>
    </vType>
    <vehicle id="1" type="normal_car" depart="2.00">
        <route edges="-E1 E3 E8 E9"/>
    </vehicle>
    <vehicle id="2" type="normal_car" depart="4.00">
        <route edges="E6 -E8 -E5 E7"/>
    </vehicle>
    <vehicle id="3" type="normal_car" depart="6.00">
        <route edges="-E6 -E1"/>
    </vehicle>
    <vehicle id="4" type="normal_car" depart="8.00">
        <route edges="-E7 E5 E8"/>
    </vehicle>
    <vehicle id="5" type="normal_car" depart="10.00">
        <route edges="E2 -E4 E6"/>
    </vehicle>
    <vehicle id="6" type="normal_car" depart="12.00">
        <route edges="E0 E1"/>
    </vehicle>
    <vehicle id="7" type="normal_car" depart="14.00">
        <route edges="E2 E5 E8 E9"/>
    </vehicle>
    <vehicle id="8" type="normal_car" depart="16.00">
        <route edges="E6 -E8 -E5 E7"/>
    </vehicle>
    <vehicle id="9" type="normal_car" depart="18.00">
        <route edges="E4 E5"/>
    </vehicle>
    <vehicle id="10" type="normal_car" depart="20.00">
        <route edges="-E7 -E2 E3 -E5"/>
    </vehicle>
    <vehicle id="11" type="normal_car" depart="22.00">
        <route edges="E6 -E8 -E5 E7"/>
    </vehicle>
    <vehicle id="12" type="normal_car" depart="24.00">
        <route edges="-E4 -E1 E2 E5"/>
    </vehicle>
    <vehicle id="13" type="normal_car" depart="26.00">
        <route edges="-E4 -E1 E2 E7"/>
    </vehicle>
    <vehicle id="14" type="normal_car" depart="28.00">
        <route edges="E1 E4 E5 -E3 E2"/>
    </vehicle>
    <vehicle id="15" type="normal_car" depart="30.00">
        <route edges="E0 E3 E8 -E6"/>
    </vehicle>
    <vehicle id="16" type="normal_car" depart="32.00">
        <route edges="-E1 E3 E8 E9"/>
    </vehicle>
    <vehicle id="17" type="truck" depart="34.00">
        <route edges="E3 -E5 -E2 -E0"/>
    </vehicle>
    <vehicle id="18" type="normal_car" depart="36.00">
        <route edges="-E7 -E2 E3"/>
    </vehicle>
    <vehicle id="19" type="normal_car" depart="38.00">
        <route edges="-E1 E3 E8 -E7"/>
    </vehicle>
    <vehicle id="20" type="normal_car" depart="40.00">
        <route edges="E6 -E8"/>
    </vehicle>
    <vehicle id="21" type="normal_car" depart="42.00">
        <route edges="-E1 E2 -E4 E6"/>
    </vehicle>
    <vehicle id="22" type="normal_car" depart="44.00">
        <route edges="-E3 E2 E7"/>
    </vehicle>
    <vehicle id="23" type="normal_car" depart="46.00">
        <route edges="-E7 E5 E8"/>
    </vehicle>
    <vehicle id="24" type="truck" depart="48.00">
        <route edges="-E3 E2 E5"/>
    </vehicle>
    <vehicle id="25" type="truck" depart="50.00">
        <route edges="E6 -E8"/>
    </vehicle>
    <vehicle id="26" type="truck" depart="52.00">
        <route edges="-E3 E2 E5 E8 -E7"/>
    </vehicle>
    <vehicle id="27" type="normal_car" depart="54.00">
        <route edges="-E2 E1 E6 -E8"/>
    </vehicle>
    <vehicle id="28" type="normal_car" depart="56.00">
        <route edges="E7 -E8"/>
    </vehicle>
    <vehicle id="29" type="normal_car" depart="58.00">
        <route edges="E6 -E8"/>
    </vehicle>
    <vehicle id="30" type="normal_car" depart="60.00">
        <route edges="-E2 -E0"/>
    </vehicle>
    <vehicle id="31" type="normal_car" depart="62.00">
        <route edges="E6 -E8 -E5 E7 -E6"/>
    </vehicle>
    <vehicle id="32" type="normal_car" depart="64.00">
        <route edges="-E5 -E4 E6 -E7"/>
    </vehicle>
    <vehicle id="33" type="normal_car" depart="66.00">
        <route edges="E4 E5 E8 -E6"/>
    </vehicle>
    <vehicle id="34" type="truck" depart="68.00">
        <route edges="-E1 E2 -E4 E6"/>
    </vehicle>
    <vehicle id="35" type="normal_car" depart="70.00">
        <route edges="-E6 E4 E7 -E8"/>
    </vehicle>
    <vehicle id="36" type="normal_car" depart="72.00">
        <route edges="-E5"/>
    </vehicle>
    <vehicle id="37" type="normal_car" depart="74.00">
        <route edges="-E8 -E3 E2 E5 E8"/>
    </vehicle>
    <vehicle id="38" type="normal_car" depart="76.00">
        <route edges="E2 E7 -E8"/>
    </vehicle>
    <vehicle id="39" type="normal_car" depart="78.00">
        <route edges="E3 E8 -E6"/>
    </vehicle>
    <vehicle id="40" type="normal_car" depart="80.00">
        <route edges="E5 -E3 -E0"/>
    </vehicle>
    <vehicle id="41" type="truck" depart="82.00">
        <route edges="-E4 -E1 E2 E7"/>
    </vehicle>
    <vehicle id="42" type="normal_car" depart="84.00">
        <route edges="-E2 E1"/>
    </vehicle>
    <vehicle id="43" type="normal_car" depart="86.00">
        <route edges="-E3 E2 -E4 -E1 E3"/>
    </vehicle>
    <vehicle id="44" type="normal_car" depart="88.00">
        <route edges="-E8 -E5"/>
    </vehicle>
    <vehicle id="45" type="normal_car" depart="90.00">
        <route edges="E6 -E8 -E3 E1"/>
    </vehicle>
    <vehicle id="46" type="normal_car" depart="92.00">
        <route edges="E4 -E2 E1"/>
    </vehicle>
    <vehicle id="47" type="truck" depart="94.00">
        <route edges="E0 E2 E5 -E3"/>
    </vehicle>
    <vehicle id="48" type="normal_car" depart="96.00">
        <route edges="-E4 E6 -E7"/>
    </vehicle>
    <vehicle id="49" type="normal_car" depart="98.00">
        <route edges="-E8 -E3 E1 E4"/>
    </vehicle>
    <vehicle id="50" type="normal_car" depart="100.00">
        <route edges="E8 -E7 -E2 E1"/>
    </vehicle>
    <vehicle id="51" type="normal_car" depart="102.00">
        <route edges="-E6 E4 -E2 E1"/>
    </vehicle>
    <vehicle id="52" type="normal_car" depart="104.00">
        <route edges="-E7 E5 E8 -E6"/>
    </vehicle>
    <vehicle id="53" type="truck" depart="106.00">
        <route edges="E0 E3 E8 -E7"/>
    </vehicle>
    <vehicle id="54" type="truck" depart="108.00">
        <route edges="E8 -E7 -E2 E3 -E5"/>
    </vehicle>
    <vehicle id="55" type="normal_car" depart="110.00">
        <route edges="-E8 -E5 E7"/>
    </vehicle>
    <vehicle id="56" type="normal_car" depart="112.00">
        <route edges="E7 -E6 E4"/>
    </vehicle>
    <vehicle id="57" type="normal_car" depart="114.00">
        <route edges="E2 E5"/>
    </vehicle>
    <vehicle id="58" type="normal_car" depart="116.00">
        <route edges="E2 -E4 -E1 -E0"/>
    </vehicle>
    <vehicle id="59" type="truck" depart="118.00">
        <route edges="-E8 -E5 -E4 E6 -E7"/>
    </vehicle>
    <vehicle id="60" type="normal_car" depart="120.00">
        <route edges="E5 E8 -E6 -E1"/>
    </vehicle>
    <vehicle id="61" type="normal_car" depart="122.00">
        <route edges="E8 -E7"/>
    </vehicle>
    <vehicle id="62" type="normal_car" depart="124.00">
        <route edges="-E5 E7 -E6"/>
    </vehicle>
    <vehicle id="63" type="normal_car" depart="126.00">
        <route edges="-E6 E4 E5"/>
    </vehicle>
    <vehicle id="64" type="normal_car" depart="128.00">
        <route edges="-E3 E1 E6"/>
    </vehicle>
    <vehicle id="65" type="normal_car" depart="130.00">
        <route edges="E6 -E8 -E3 E1"/>
    </vehicle>
    <vehicle id="66" type="truck" depart="132.00">
        <route edges="E7"/>
    </vehicle>
    <vehicle id="67" type="normal_car" depart="134.00">
        <route edges="-E3 E2 E5 E8 E9"/>
    </vehicle>
    <vehicle id="68" type="normal_car" depart="136.00">
        <route edges="E6 -E7 E5 E8"/>
    </vehicle>
    <vehicle id="69" type="truck" depart="138.00">
        <route edges="-E4 E6 -E8 -E3"/>
    </vehicle>
    <vehicle id="70" type="normal_car" depart="140.00">
        <route edges="E2 E5 E8 -E7"/>
    </vehicle>
    <vehicle id="71" type="normal_car" depart="142.00">
        <route edges="E8 -E7 -E4 E6 -E8"/>
    </vehicle>
    <vehicle id="72" type="normal_car" depart="144.00">
        <route edges="E5 E8 -E6 E4"/>
    </vehicle>
    <vehicle id="73" type="normal_car" depart="146.00">
        <route edges="E5 E8 -E7 -E2 E3 -E5"/>
    </vehicle>
    <vehicle id="74" type="normal_car" depart="148.00">
        <route edges="E6 -E8 -E3 E1 E4"/>
    </vehicle>
    <vehicle id="75" type="normal_car" depart="150.00">
        <route edges="-E5 -E4 -E1 E2"/>
    </vehicle>
    <vehicle id="76" type="normal_car" depart="152.00">
        <route edges="-E9 -E7"/>
    </vehicle>
    <vehicle id="77" type="normal_car" depart="154.00">
        <route edges="-E6 E4 E5 -E3"/>
    </vehicle>
    <vehicle id="78" type="normal_car" depart="156.00">
        <route edges="E0 E3 E8 -E7"/>
    </vehicle>
    <vehicle id="79" type="normal_car" depart="158.00">
        <route edges="-E9 -E7 E5"/>
    </vehicle>
    <vehicle id="80" type="normal_car" depart="160.00">
        <route edges="-E9 -E8 -E3 -E0"/>
    </vehicle>
    <vehicle id="81" type="normal_car" depart="162.00">
        <route edges="E0 E3 E8 E9"/>
    </vehicle>
    <vehicle id="82" type="normal_car" depart="164.00">
        <route edges="E5 E8 -E6"/>
    </vehicle>
    <vehicle id="83" type="normal_car" depart="166.00">
        <route edges="-E2 E1 E4 E7"/>
    </vehicle>
    <vehicle id="84" type="normal_car" depart="168.00">
        <route edges="-E2 E3"/>
    </vehicle>
    <vehicle id="85" type="normal_car" depart="170.00">
        <route edges="E2 -E4 -E1 -E0"/>
    </vehicle>
    <vehicle id="86" type="normal_car" depart="172.00">
        <route edges="E5 E8 E9"/>
    </vehicle>
    <vehicle id="87" type="truck" depart="174.00">
        <route edges="E3 -E5"/>
    </vehicle>
    <vehicle id="88" type="normal_car" depart="176.00">
        <route edges="E5 -E3 -E0"/>
    </vehicle>
    <vehicle id="89" type="normal_car" depart="178.00">
        <route edges="E7 -E8 -E5 -E4 E6"/>
    </vehicle>
    <vehicle id="90" type="normal_car" depart="180.00">
        <route edges="E1 E6 -E8"/>
    </vehicle>
    <vehicle id="91" type="truck" depart="182.00">
        <route edges="-E6 -E1 -E0"/>
    </vehicle>
    <vehicle id="92" type="normal_car" depart="184.00">
        <route edges="E4 E5 E8 E9"/>
    </vehicle>
    <vehicle id="93" type="normal_car" depart="186.00">
        <route edges="E7 -E8 -E5 -E4 E6"/>
    </vehicle>
    <vehicle id="94" type="normal_car" depart="188.00">
        <route edges="E4 E5 E8 -E7"/>
    </vehicle>
    <vehicle id="95" type="truck" depart="190.00">
        <route edges="E0 E1"/>
    </vehicle>
    <vehicle id="96" type="normal_car" depart="192.00">
        <route edges="E3 -E5 -E4 -E1"/>
    </vehicle>
    <vehicle id="97" type="truck" depart="194.00">
        <route edges="-E4 -E1 E3"/>
    </vehicle>
    <vehicle id="98" type="normal_car" depart="196.00">
        <route edges="-E2 E1 E4 E7"/>
    </vehicle>
    <vehicle id="99" type="normal_car" depart="198.00">
        <route edges="E5 E8 -E7 -E2"/>
    </vehicle>
    <vehicle id="100" type="normal_car" depart="200.00">
        <route edges="E7 -E8 -E5 -E2 E3"/>
    </vehicle>
    <vehicle id="101" type="normal_car" depart="202.00">
        <route edges="E0 E3 -E5"/>
    </vehicle>
    <vehicle id="102" type="truck" depart="204.00">
        <route edges="-E7 -E4 E6 -E8"/>
    </vehicle>
    <vehicle id="103" type="normal_car" depart="206.00">
        <route edges="-E3 E2 E7 -E8"/>
    </vehicle>
    <vehicle id="104" type="truck" depart="208.00">
        <route edges="E6 -E8 -E3"/>
    </vehicle>
    <vehicle id="105" type="normal_car" depart="210.00">
        <route edges="E0 E2"/>
    </vehicle>
    <vehicle id="106" type="normal_car" depart="212.00">
        <route edges="-E5 E7 -E8"/>
    </vehicle>
    <vehicle id="107" type="normal_car" depart="214.00">
        <route edges="E6 -E7 E5 E8"/>
    </vehicle>
    <vehicle id="108" type="normal_car" depart="216.00">
        <route edges="E1 E4 E5 -E3 E2"/>
    </vehicle>
    <vehicle id="109" type="normal_car" depart="218.00">
        <route edges="E1 E4 -E2 -E0"/>
    </vehicle>
    <vehicle id="110" type="normal_car" depart="220.00">
        <route edges="-E1 E2 E5"/>
    </vehicle>
    <vehicle id="111" type="normal_car" depart="222.00">
        <route edges="E5 E8 -E7"/>
    </vehicle>
    <vehicle id="112" type="normal_car" depart="224.00">
        <route edges="E2 E7"/>
    </vehicle>
    <vehicle id="113" type="normal_car" depart="226.00">
        <route edges="-E3 E2 -E4 -E1 E3"/>
    </vehicle>
    <vehicle id="114" type="normal_car" depart="228.00">
        <route edges="-E6 -E1 E2"/>
    </vehicle>
    <vehicle id="115" type="normal_car" depart="230.00">
        <route edges="-E1 E2 E5"/>
    </vehicle>
    <vehicle id="116" type="normal_car" depart="232.00">
        <route edges="E1 E6 -E8 -E5"/>
    </vehicle>
    <vehicle id="117" type="normal_car" depart="234.00">
        <route edges="E3 -E5 E7 -E8 -E3"/>
    </vehicle>
    <vehicle id="118" type="truck" depart="236.00">
        <route edges="-E8 -E5 E7"/>
    </vehicle>
    <vehicle id="119" type="normal_car" depart="238.00">
        <route edges="-E2 E1 E4"/>
    </vehicle>
    <vehicle id="120" type="normal_car" depart="240.00">
        <route edges="E6 -E8 -E5 E7 -E6"/>
    </vehicle>
    <vehicle id="121" type="normal_car" depart="242.00">
        <route edges="E1 E4 E5 E8 -E6 -E1"/>
    </vehicle>
    <vehicle id="122" type="normal_car" depart="244.00">
        <route edges="E6 E9"/>
    </vehicle>
    <vehicle id="123" type="normal_car" depart="246.00">
        <route edges="-E2 E1 E4"/>
    </vehicle>
    <vehicle id="124" type="truck" depart="248.00">
        <route edges="E2 -E4"/>
    </vehicle>
    <vehicle id="125" type="truck" depart="250.00">
        <route edges="-E9 -E8 -E5 E7"/>
    </vehicle>
    <vehicle id="126" type="normal_car" depart="252.00">
        <route edges="-E2 E3 E8 -E6"/>
    </vehicle>
    <vehicle id="127" type="truck" depart="254.00">
        <route edges="-E4 -E1 -E0"/>
    </vehicle>
    <vehicle id="128" type="normal_car" depart="256.00">
        <route edges="-E4 E6 E9"/>
    </vehicle>
    <vehicle id="129" type="normal_car" depart="258.00">
        <route edges="-E5 -E4 E6 -E7"/>
    </vehicle>
    <vehicle id="130" type="normal_car" depart="260.00">
        <route edges="-E3 E2 -E4 -E1"/>
    </vehicle>
    <vehicle id="131" type="normal_car" depart="262.00">
        <route edges="E6 -E8 -E3 E1"/>
    </vehicle>
    <vehicle id="132" type="normal_car" depart="264.00">
        <route edges="-E2 E1 E6 -E8"/>
    </vehicle>
    <vehicle id="133" type="normal_car" depart="266.00">
        <route edges="E0 E2 E5"/>
    </vehicle>
    <vehicle id="134" type="normal_car" depart="268.00">
        <route edges="E3 E8 E9"/>
    </vehicle>
    <vehicle id="135" type="normal_car" depart="270.00">
        <route edges="-E6 E4 E5"/>
    </vehicle>
    <vehicle id="136" type="normal_car" depart="272.00">
        <route edges="E2 E7 -E8 -E5"/>
    </vehicle>
    <vehicle id="137" type="normal_car" depart="274.00">
        <route edges="E3 E8 -E7"/>
    </vehicle>
    <vehicle id="138" type="truck" depart="276.00">
        <route edges="-E4 -E1 E2"/>
    </vehicle>
    <vehicle id="139" type="normal_car" depart="278.00">
        <route edges="-E2 E1 E6"/>
    </vehicle>
    <vehicle id="140" type="truck" depart="280.00">
        <route edges="E7 -E8 -E5 -E4"/>
    </vehicle>
    <vehicle id="141" type="truck" depart="282.00">
        <route edges="E8 -E7 -E2"/>
    </vehicle>
    <vehicle id="142" type="normal_car" depart="284.00">
        <route edges="-E7 -E4"/>
    </vehicle>
    <vehicle id="143" type="normal_car" depart="286.00">
        <route edges="E2 E5 -E3"/>
    </vehicle>
    <vehicle id="144" type="truck" depart="288.00">
        <route edges="E6 -E8 -E3"/>
    </vehicle>
    <vehicle id="145" type="truck" depart="290.00">
        <route edges="E1 E4 -E2"/>
    </vehicle>
    <vehicle id="146" type="normal_car" depart="292.00">
        <route edges="E7 -E6 E4"/>
    </vehicle>
    <vehicle id="147" type="truck" depart="294.00">
        <route edges="-E7 -E2 E1 E4"/>
    </vehicle>
    <vehicle id="148" type="normal_car" depart="296.00">
        <route edges="E4 E5 E8 -E7 -E4"/>
    </vehicle>
    <vehicle id="149" type="normal_car" depart="298.00">
        <route edges="-E8 -E5"/>
    </vehicle>
    <vehicle id="150" type="normal_car" depart="300.00">
        <route edges="E5 E8 E9"/>
    </vehicle>
    <vehicle id="151" type="normal_car" depart="302.00">
        <route edges="E8 -E6 E4"/>
    </vehicle>
    <vehicle id="152" type="normal_car" depart="304.00">
        <route edges="-E5 -E4 -E1 E2 E5"/>
    </vehicle>
    <vehicle id="153" type="normal_car" depart="306.00">
        <route edges="E6 -E8 -E5 -E4 -E1"/>
    </vehicle>
    <vehicle id="154" type="normal_car" depart="308.00">
        <route edges="E7 -E8 -E3 E1"/>
    </vehicle>
    <vehicle id="155" type="truck" depart="310.00">
        <route edges="-E8 -E3 E1 E4"/>
    </vehicle>
    <vehicle id="156" type="normal_car" depart="312.00">
        <route edges="E4 -E2 E3"/>
    </vehicle>
    <vehicle id="157" type="normal_car" depart="314.00">
        <route edges="-E5 -E4 E6"/>
    </vehicle>
    <vehicle id="158" type="truck" depart="316.00">
        <route edges="E8 -E7"/>
    </vehicle>
    <vehicle id="159" type="normal_car" depart="318.00">
        <route edges="E3 -E5 -E2 E1"/>
    </vehicle>
    <vehicle id="160" type="normal_car" depart="320.00">
        <route edges="-E1 E2 -E4"/>
    </vehicle>
    <vehicle id="161" type="truck" depart="322.00">
        <route edges="-E7 -E4 E6 -E8"/>
    </vehicle>
    <vehicle id="162" type="truck" depart="324.00">
        <route edges="-E6 -E1 E2"/>
    </vehicle>
    <vehicle id="163" type="normal_car" depart="326.00">
        <route edges="-E6 E4 E5 E8"/>
    </vehicle>
    <vehicle id="164" type="truck" depart="328.00">
        <route edges="E1 E4"/>
    </vehicle>
    <vehicle id="165" type="normal_car" depart="330.00">
        <route edges="E5 E8"/>
    </vehicle>
    <vehicle id="166" type="truck" depart="332.00">
        <route edges="E7 E9"/>
    </vehicle>
    <vehicle id="167" type="normal_car" depart="334.00">
        <route edges="E5 E8 E9"/>
    </vehicle>
    <vehicle id="168" type="normal_car" depart="336.00">
        <route edges="-E1 E3 E8 E9"/>
    </vehicle>
    <vehicle id="169" type="truck" depart="338.00">
        <route edges="E2 E5 E8"/>
    </vehicle>
    <vehicle id="170" type="normal_car" depart="340.00">
        <route edges="-E6 -E1"/>
    </vehicle>
    <vehicle id="171" type="normal_car" depart="342.00">
        <route edges="-E5 -E2"/>
    </vehicle>
    <vehicle id="172" type="normal_car" depart="344.00">
        <route edges="E2 E7 -E8"/>
    </vehicle>
    <vehicle id="173" type="normal_car" depart="346.00">
        <route edges="E3 E8"/>
    </vehicle>
    <vehicle id="174" type="normal_car" depart="348.00">
        <route edges="E6 -E8 -E3 E1"/>
    </vehicle>
    <vehicle id="175" type="normal_car" depart="350.00">
        <route edges="E1 E4 E5 E8 -E6 -E1"/>
    </vehicle>
    <vehicle id="176" type="normal_car" depart="352.00">
        <route edges="E1 E4 E5 E8"/>
    </vehicle>
    <vehicle id="177" type="normal_car" depart="354.00">
        <route edges="-E6 E4 E5 E8 E9"/>
    </vehicle>
    <vehicle id="178" type="truck" depart="356.00">
        <route edges="E7 -E8 -E5 -E2 E3"/>
    </vehicle>
    <vehicle id="179" type="normal_car" depart="358.00">
        <route edges="E2 -E4"/>
    </vehicle>
    <vehicle id="180" type="normal_car" depart="360.00">
        <route edges="E5 E8 -E6"/>
    </vehicle>
    <vehicle id="181" type="normal_car" depart="362.00">
        <route edges="-E5 -E2 E3 E8"/>
    </vehicle>
    <vehicle id="182" type="normal_car" depart="364.00">
        <route edges="E2 -E4 E6"/>
    </vehicle>
    <vehicle id="183" type="normal_car" depart="366.00">
        <route edges="E6 -E8 -E3 -E0"/>
    </vehicle>
    <vehicle id="184" type="normal_car" depart="368.00">
        <route edges="-E4 -E1 E2 E5"/>
    </vehicle>
    <vehicle id="185" type="normal_car" depart="370.00">
        <route edges="-E2 -E0"/>
    </vehicle>
    <vehicle id="186" type="normal_car" depart="372.00">
        <route edges="-E9 -E8 -E5 -E4"/>
    </vehicle>
    <vehicle id="187" type="normal_car" depart="374.00">
        <route edges="-E1 E3 E8 -E6"/>
    </vehicle>
    <vehicle id="188" type="truck" depart="376.00">
        <route edges="-E4 E6 -E8"/>
    </vehicle>
    <vehicle id="189" type="normal_car" depart="378.00">
        <route edges="E5 E8 -E6"/>
    </vehicle>
    <vehicle id="190" type="normal_car" depart="380.00">
        <route edges="-E9 -E8 -E3 E1"/>
    </vehicle>
    <vehicle id="191" type="truck" depart="382.00">
        <route edges="E3"/>
    </vehicle>
    <vehicle id="192" type="normal_car" depart="384.00">
        <route edges="-E1 E2 E5 -E3"/>
    </vehicle>
    <vehicle id="193" type="normal_car" depart="386.00">
        <route edges="-E7 -E2 -E0"/>
    </vehicle>
    <vehicle id="194" type="normal_car" depart="388.00">
        <route edges="-E6 -E1 E3"/>
    </vehicle>
    <vehicle id="195" type="truck" depart="390.00">
        <route edges="E2 -E4 E6"/>
    </vehicle>
    <vehicle id="196" type="normal_car" depart="392.00">
        <route edges="E0 E2 E5 -E3"/>
    </vehicle>
    <vehicle id="197" type="truck" depart="394.00">
        <route edges="E0 E2 E7"/>
    </vehicle>
    <vehicle id="198" type="normal_car" depart="396.00">
        <route edges="-E7 E5 E8 E9"/>
    </vehicle>
    <vehicle id="199" type="normal_car" depart="398.00">
        <route edges="-E5 -E2"/>
    </vehicle>
    <vehicle id="200" type="normal_car" depart="400.00">
        <route edges="-E7 -E4 -E1 E2 E7"/>
    </vehicle>
    <vehicle id="201" type="normal_car" depart="402.00">
        <route edges="E8 -E7 E5"/>
    </vehicle>
    <vehicle id="202" type="normal_car" depart="404.00">
        <route edges="-E1 E3 E8 -E7"/>
    </vehicle>
    <vehicle id="203" type="normal_car" depart="406.00">
        <route edges="-E1 -E0"/>
    </vehicle>
    <vehicle id="204" type="normal_car" depart="408.00">
        <route edges="-E5 E7 E9"/>
    </vehicle>
    <vehicle id="205" type="normal_car" depart="410.00">
        <route edges="-E8 -E3 -E0"/>
    </vehicle>
    <vehicle id="206" type="normal_car" depart="412.00">
        <route edges="E7 -E6 -E1"/>
    </vehicle>
    <vehicle id="207" type="normal_car" depart="414.00">
        <route edges="E0 E2 E7"/>
    </vehicle>
    <vehicle id="208" type="normal_car" depart="416.00">
        <route edges="-E9 -E8 -E3 E2"/>
    </vehicle>
    <vehicle id="209" type="normal_car" depart="418.00">
        <route edges="E0 E1 E4"/>
    </vehicle>
    <vehicle id="210" type="normal_car" depart="420.00">
        <route edges="-E7 E5 E8"/>
    </vehicle>
    <vehicle id="211" type="normal_car" depart="422.00">
        <route edges="-E7 -E2 E1"/>
    </vehicle>
    <vehicle id="212" type="normal_car" depart="424.00">
        <route edges="-E7 -E2"/>
    </vehicle>
    <vehicle id="213" type="normal_car" depart="426.00">
        <route edges="E0 E3 E8"/>
    </vehicle>
    <vehicle id="214" type="normal_car" depart="428.00">
        <route edges="E0 E2"/>
    </vehicle>
    <vehicle id="215" type="normal_car" depart="430.00">
        <route edges="-E7 -E4 -E1"/>
    </vehicle>
    <vehicle id="216" type="normal_car" depart="432.00">
        <route edges="-E3 E2 -E4"/>
    </vehicle>
    <vehicle id="217" type="truck" depart="434.00">
        <route edges="E5 E8 -E7"/>
    </vehicle>
    <vehicle id="218" type="normal_car" depart="436.00">
        <route edges="-E2 E1 E4"/>
    </vehicle>
    <vehicle id="219" type="normal_car" depart="438.00">
        <route edges="E8 -E7 E5 -E3"/>
    </vehicle>
    <vehicle id="220" type="normal_car" depart="440.00">
        <route edges="-E7 -E2 E1"/>
    </vehicle>
    <vehicle id="221" type="normal_car" depart="442.00">
        <route edges="-E6 E4 E5 E8 -E7"/>
    </vehicle>
    <vehicle id="222" type="normal_car" depart="444.00">
        <route edges="E4 -E2"/>
    </vehicle>
    <vehicle id="223" type="normal_car" depart="446.00">
        <route edges="-E5 -E2 E1 E4"/>
    </vehicle>
    <vehicle id="224" type="normal_car" depart="448.00">
        <route edges="-E4 -E1 -E0"/>
    </vehicle>
    <vehicle id="225" type="truck" depart="450.00">
        <route edges="-E6 E4 E5 E8"/>
    </vehicle>
    <vehicle id="226" type="truck" depart="452.00">
        <route edges="-E9 -E7 -E2"/>
    </vehicle>
    <vehicle id="227" type="normal_car" depart="454.00">
        <route edges="E3 -E5 E7 -E8"/>
    </vehicle>
    <vehicle id="228" type="truck" depart="456.00">
        <route edges="-E8 -E3 E2"/>
    </vehicle>
    <vehicle id="229" type="normal_car" depart="458.00">
        <route edges="-E1 E2"/>
    </vehicle>
    <vehicle id="230" type="normal_car" depart="460.00">
        <route edges="E7 -E6 E4 E5"/>
    </vehicle>
    <vehicle id="231" type="normal_car" depart="462.00">
        <route edges="E4"/>
    </vehicle>
    <vehicle id="232" type="normal_car" depart="464.00">
        <route edges="-E1 E2 E5 -E3"/>
    </vehicle>
    <vehicle id="233" type="normal_car" depart="466.00">
        <route edges="-E6 E4 E5 E8"/>
    </vehicle>
    <vehicle id="234" type="normal_car" depart="468.00">
        <route edges="-E7 -E2 E1"/>
    </vehicle>
    <vehicle id="235" type="normal_car" depart="470.00">
        <route edges="-E1 -E0"/>
    </vehicle>
    <vehicle id="236" type="truck" depart="472.00">
        <route edges="-E9 -E8 -E5"/>
    </vehicle>
    <vehicle id="237" type="normal_car" depart="474.00">
        <route edges="E8 -E7 E5"/>
    </vehicle>
    <vehicle id="238" type="truck" depart="476.00">
        <route edges="-E4 -E1 E3"/>
    </vehicle>
    <vehicle id="239" type="normal_car" depart="478.00">
        <route edges="E2 -E4 -E1"/>
    </vehicle>
    <vehicle id="240" type="normal_car" depart="480.00">
        <route edges="E5 -E3 E1 E6"/>
    </vehicle>
    <vehicle id="241" type="normal_car" depart="482.00">
        <route edges="-E2 E1 E6 -E8"/>
    </vehicle>
    <vehicle id="242" type="normal_car" depart="484.00">
        <route edges="E8 -E6 E4"/>
    </vehicle>
    <vehicle id="243" type="normal_car" depart="486.00">
        <route edges="E4 E5 E8 -E7"/>
    </vehicle>
    <vehicle id="244" type="normal_car" depart="488.00">
        <route edges="E4 E5 -E3 E2"/>
    </vehicle>
    <vehicle id="245" type="normal_car" depart="490.00">
        <route edges="E2 E7"/>
    </vehicle>
    <vehicle id="246" type="truck" depart="492.00">
        <route edges="-E2 E1 E4 E5 -E3"/>
    </vehicle>
    <vehicle id="247" type="normal_car" depart="494.00">
        <route edges="E7 -E8 -E5 -E4"/>
    </vehicle>
    <vehicle id="248" type="normal_car" depart="496.00">
        <route edges="-E6 E4 -E2 E1"/>
    </vehicle>
    <vehicle id="249" type="normal_car" depart="498.00">
        <route edges="E8 -E7 -E4 E6"/>
    </vehicle>
    <vehicle id="250" type="normal_car" depart="500.00">
        <route edges="E1 E6 E9"/>
    </vehicle>
    <vehicle id="251" type="normal_car" depart="502.00">
        <route edges="-E6 -E1 E2 -E4"/>
    </vehicle>
    <vehicle id="252" type="normal_car" depart="504.00">
        <route edges="E0 E2 -E4"/>
    </vehicle>
    <vehicle id="253" type="normal_car" depart="506.00">
        <route edges="-E2 E3 E8"/>
    </vehicle>
    <vehicle id="254" type="normal_car" depart="508.00">
        <route edges="E8 -E7 E5"/>
    </vehicle>
    <vehicle id="255" type="normal_car" depart="510.00">
        <route edges="E2 E5"/>
    </vehicle>
    <vehicle id="256" type="normal_car" depart="512.00">
        <route edges="-E6 -E1 E3 -E5"/>
    </vehicle>
    <vehicle id="257" type="normal_car" depart="514.00">
        <route edges="E4 E5 E8 -E6"/>
    </vehicle>
    <vehicle id="258" type="normal_car" depart="516.00">
        <route edges="E3 E8 -E7"/>
    </vehicle>
    <vehicle id="259" type="normal_car" depart="518.00">
        <route edges="E0 E1 E4 -E2"/>
    </vehicle>
    <vehicle id="260" type="normal_car" depart="520.00">
        <route edges="E6 -E8"/>
    </vehicle>
    <vehicle id="261" type="truck" depart="522.00">
        <route edges="-E5 -E2 E3 E8"/>
    </vehicle>
    <vehicle id="262" type="normal_car" depart="524.00">
        <route edges="-E7 -E4 -E1 E2 E7"/>
    </vehicle>
    <vehicle id="263" type="normal_car" depart="526.00">
        <route edges="E8 -E6 -E1 E2"/>
    </vehicle>
    <vehicle id="264" type="normal_car" depart="528.00">
        <route edges="-E9 -E8 -E3"/>
    </vehicle>
    <vehicle id="265" type="normal_car" depart="530.00">
        <route edges="-E7 E5"/>
    </vehicle>
    <vehicle id="266" type="normal_car" depart="532.00">