<routes>
    <vType id="agent" length="5.0" accel="2.0" decel="5.0" maxSpeed="15.0" color="1,1,0" sigma="0.5" guiShape="passenger/van" >
        <param key="has.emission.device" value="true"/>
        <param key="has.rerouting.device" value="true"/>
    </vType>
    <route id="rou0" edges="81824402#0 -320980921#2 -320980921#1 -320980921#0"/>
    
    <vehicle depart="0.0" id="veh0" route="rou0" type="agent" color="1,1,0"/>
    
</routes>