<?xml version="1.0" encoding="UTF-8"?>

<!-- generated on 2022-03-02 19:34:52 by Eclipse SUMO duarouter Version 1.12.0
<configuration xmlns:xsi="http://www.w3.org/2001/XMLSchema-instance" xsi:noNamespaceSchemaLocation="http://sumo.dlr.de/xsd/duarouterConfiguration.xsd">

    <input>
        <net-file value="./Geojedo/Net/geojedo.net.xml"/>
        <additional-files value="./Geojedo/Add/gj_dqn.add.xml"/>
        <route-files value="./Geojedo/Rou/gj_dqn.trip.xml"/>
    </input>

    <output>
        <output-file value="./Geojedo/Rou/gj_dqnrandom.rou.xml"/>
        <alternatives-output value="./Geojedo/Rou/gj_dqnrandom.rou.alt.xml"/>
    </output>

    <time>
        <begin value="0"/>
        <end value="3600"/>
    </time>

    <report>
        <no-warnings value="true"/>
        <ignore-errors value="true"/>
        <no-step-log value="true"/>
    </report>

</configuration>
-->

<routes xmlns:xsi="http://www.w3.org/2001/XMLSchema-instance" xsi:noNamespaceSchemaLocation="http://sumo.dlr.de/xsd/routes_file.xsd">
    <vType id="truck" length="8.00" maxSpeed="5.00" probability="0.20" guiShape="truck" color="red" accel="1.0" decel="5.0" sigma="0.5">
        <param key="has.emission.device" value="false"/>
    </vType>
    <vehicle id="0" type="truck" depart="0.00">
        <route edges="240510789 476635865#3 458441685#0 458441685#1 240388158#0 240388158#1 240388158#2 458243011#0 458243011#1 243443852#0 243443852#1 243443852#2 243443852#3 243443852#4 243443852#5 -243443852#5"/>
    </vehicle>
    <vType id="normal_car" length="5.00" maxSpeed="12.00" probability="0.80" guiShape="passenger/van" color="blue" accel="2.0" decel="5.0" sigma="0.5">
        <param key="has.emission.device" value="false"/>
    </vType>
    <vehicle id="1" type="normal_car" depart="3.00">
        <route edges="320980937#1 -81824402#9 -81824402#8 -81824402#7 81824402#7"/>
    </vehicle>
    <vehicle id="2" type="normal_car" depart="6.00">
        <route edges="395957542#1 -243443852#5 -243443852#4 -243443852#3 452262118#0 452262118#1 452262118#2 -457863184#0 -240392105#1 -240392105#0 -243399011#0 -243463811 -478427207#3 -478427207#2 -478427207#1 478427205#4"/>
    </vehicle>
    <vehicle id="3" type="normal_car" depart="9.00">
        <route edges="-320980933#0 -320980932#1 -320980932#0 -320980931 320980930#0 320980930#1 320980930#2 320980930#3 -243443852#4 -240363126#1 -240363126#0"/>
    </vehicle>
    <vehicle id="4" type="normal_car" depart="12.00">
        <route edges="454222936#1 -454222936#1 1021336270#1 81824402#3 81824402#4 81824402#5 81824402#6 81824402#7 81824402#8 -320980936#3"/>
    </vehicle>
    <vehicle id="5" type="normal_car" depart="15.00">
        <route edges="-243399011#3 -243399011#2 -243399011#1 -243399011#0 -243463811 -478427207#3 -708426663"/>
    </vehicle>
    <vehicle id="6" type="normal_car" depart="18.00">
        <route edges="454226038 395497867#1 457158316#0 -457158316#0"/>
    </vehicle>
    <vehicle id="7" type="normal_car" depart="21.00">
        <route edges="-320980933#2 -320980933#1 -320980933#0 -320980932#1 478427207#7 81824402#8 -320980936#3"/>
    </vehicle>
    <vehicle id="8" type="normal_car" depart="24.00">
        <route edges="-81824402#7 -81824402#6 -240388167#3 -240388167#2 -240388167#1 -240388167#0 243399011#0 -458441685#4 -458441685#3 -458441685#2 -458441685#1 -458441685#0 476635865#4 240510777#0 240510777#1"/>
    </vehicle>
    <vehicle id="9" type="normal_car" depart="27.00">
        <route edges="-458243011#1 458243011#1 243443852#0 243443852#1 243443852#2 243443852#3 243443852#4 243443852#5 243443852#6"/>
    </vehicle>
    <vehicle id="10" type="normal_car" depart="30.00">
        <route edges="478427205#5 -239842081#0 476635865#2 476635865#3 458441685#0 458441685#1 240388158#0 240388158#1 240388158#2 458243011#0 458243011#1 79677810#0 79677810#1 79677810#2 -79677810#2"/>
    </vehicle>
    <vehicle id="11" type="normal_car" depart="33.00">
        <route edges="464199928 -464199928 240388158#2 458243011#0 458243011#1 243443852#0 240542394 467066854#0 -239842076#3 -239842076#2 -239842076#1 395957542#0 -395957542#0"/>
    </vehicle>
    <vehicle id="12" type="normal_car" depart="36.00">
        <route edges="-395497867#1 395497867#1 395497867#2 81824402#1 81824402#2 81824402#3 -457863184#3 -457863184#2 -457863184#1 452262118#3 240388167#1 320980931 -320980931"/>
    </vehicle>
    <vehicle id="13" type="normal_car" depart="39.00">
        <route edges="-79677810#2 79677810#2 79677810#3 395957541#0"/>
    </vehicle>
    <vehicle id="14" type="normal_car" depart="42.00">
        <route edges="458953930 -458953930 239842081#2 243463807#2 243463807#3 243463807#4 243463811 243399011#0 243399011#1 243399011#2 243399011#3 243399011#4 79677810#0 79677810#1 79677810#2 79677810#3 395957541#0"/>
    </vehicle>
    <vehicle id="15" type="normal_car" depart="45.00">
        <route edges="457863184#1 -457863184#1 452262118#3 452262118#4 -478427207#5 320980934 320980933#1 320980933#2 458046371 -458046371"/>
    </vehicle>
    <vehicle id="16" type="normal_car" depart="48.00">
        <route edges="-240510774 240510774 240510789 478427207#0 478427207#1 478427207#2 478427207#3 243463811 243399011#0 240392105#0 240392105#1 320980919#0 320980925#2 320980925#3"/>
    </vehicle>
    <vehicle id="17" type="truck" depart="51.00">
        <route edges="-243443852#3 452262118#0 452262118#1 452262118#2 -457863184#0 -240392105#1 -240392105#0 -243399011#0"/>
    </vehicle>
    <vehicle id="18" type="normal_car" depart="54.00">
        <route edges="79677810#0 -79677810#0 -243399011#4 -243399011#3 -243399011#2 320980925#0 320980926#1 -320980926#1"/>
    </vehicle>
    <vehicle id="19" type="normal_car" depart="57.00">
        <route edges="-395957543 395957542#0 395957542#1 -243443852#5 -243443852#4 -243443852#3 452262118#0 452262118#1 452262118#2 452262118#3 452262118#4 -478427207#5 320980934 320980933#1 320980933#2 -320980933#2"/>
    </vehicle>
    <vehicle id="20" type="normal_car" depart="60.00">
        <route edges="-458441685#2 240388158#0 240388158#1 240388158#2 458243011#0 458243011#1 243443852#0"/>
    </vehicle>
    <vehicle id="21" type="normal_car" depart="63.00">
        <route edges="242554513#0 -395957541#1 242554516#1 239842076#7 -79677810#2 -79677810#1 -79677810#0 -243399011#4 -243399011#3 -243399011#2 -243399011#1 -458441685#4 -240388157"/>
    </vehicle>
    <vehicle id="22" type="normal_car" depart="66.00">
        <route edges="243399011#4 -458243011#1 -458243011#0 -240388158#2 -240388158#1 -240388158#0 -458441685#1"/>
    </vehicle>
    <vehicle id="23" type="normal_car" depart="69.00">
        <route edges="-936774302#0 240506675 243463807#1 243463807#2 243463807#3 243463807#4 243463811 243399011#0 243399011#1 243399011#2 243399011#3 243399011#4 243443852#0 240542394 467066854#0 239842076#4"/>
    </vehicle>
    <vehicle id="24" type="truck" depart="72.00">
        <route edges="320980925#0 320980926#1 -240392105#0 243399011#1 243399011#2"/>
    </vehicle>
    <vehicle id="25" type="truck" depart="75.00">
        <route edges="-81824402#6 -81824402#5 -81824402#4 -81824402#3 -81824402#2 1021336271#0 944909782"/>
    </vehicle>
    <vehicle id="26" type="truck" depart="78.00">
        <route edges="-81824402#0 -243443852#7 -243443852#6 -243443852#5 -243443852#4 -243443852#3 452262118#0 452262118#1 452262118#2 -457863184#0 -240392105#1 -240392105#0 -243399011#0 -243463811 -478427207#3 -478427207#2 -478427207#1 -478427207#0 -240510789 -240510774 -241204743#1 458458520 -458458520"/>
    </vehicle>
    <vehicle id="27" type="normal_car" depart="81.00">
        <route edges="458450909#1 240388159#1 -240388158#0 -458441685#1"/>
    </vehicle>
    <vehicle id="28" type="normal_car" depart="84.00">
        <route edges="937254714#1 937254711#1 -243443852#7 -243443852#6 -243443852#5 -243443852#4 -243443852#3 -243443852#2 -243443852#1 -243443852#0 -458243011#1 -458243011#0 -240388158#2 -240388158#1 -240388158#0 -458441685#1 478427205#3"/>
    </vehicle>
    <vehicle id="29" type="normal_car" depart="87.00">
        <route edges="-81824402#0 -243443852#7 -243443852#6 -243443852#5 -243443852#4 -243443852#3 452262118#0 452262118#1 452262118#2 452262118#3 240388167#1 -240388167#1"/>
    </vehicle>
    <vehicle id="30" type="normal_car" depart="90.00">
        <route edges="243463811 243399011#0 240392105#0 240392105#1 457863184#0 457863184#1 457863184#2 -457869295#1 -457869295#0 -81824402#4"/>
    </vehicle>
    <vehicle id="31" type="normal_car" depart="93.00">
        <route edges="-239842076#4 -467066854#0 -395957539#1 -395957539#0 243443852#2 452262118#0 452262118#1 452262118#2 452262118#3 452262118#4 478427207#6 320980932#1 320980932#2"/>
    </vehicle>
    <vehicle id="32" type="normal_car" depart="96.00">
        <route edges="239842076#1 -239842076#1 395957542#0 395957542#1 -243443852#5 -243443852#4 -243443852#3 -243443852#2"/>
    </vehicle>
    <vehicle id="33" type="normal_car" depart="99.00">
        <route edges="-240392104#0 240363129#1 -467066854#2 -467066854#1 -467066854#0 -395957539#1"/>
    </vehicle>
    <vehicle id="34" type="truck" depart="102.00">
        <route edges="-395957542#1 -395957542#0 -239842076#0 243443852#7 81824402#0 81824402#1 81824402#2 81824402#3 81824402#4"/>
    </vehicle>
    <vehicle id="35" type="normal_car" depart="105.00">
        <route edges="-243443852#0 243443852#0 240542394 467066854#0 467066854#1 -395957541#3"/>
    </vehicle>
    <vehicle id="36" type="normal_car" depart="108.00">
        <route edges="395497867#2 81824402#1 81824402#2 81824402#3 81824402#4"/>
    </vehicle>
    <vehicle id="37" type="normal_car" depart="111.00">
        <route edges="-454226038 454226038 395497867#1 395497867#2 -320980921#2 -320980921#1 -320980921#0 320980919#2 -243443852#1 -243443852#0 -243399011#4 240388159#0 458450909#2"/>
    </vehicle>
    <vehicle id="38" type="normal_car" depart="114.00">
        <route edges="-457863184#3 -457863184#2 -457863184#1 -457863184#0 -240392105#1 -240392105#0 -243399011#0 -243463811 243463811"/>
    </vehicle>
    <vehicle id="39" type="normal_car" depart="117.00">
        <route edges="-240388159#1 -240388159#0 243399011#4 243443852#0 243443852#1 243443852#2 243443852#3 243443852#4 -243443852#4"/>
    </vehicle>
    <vehicle id="40" type="normal_car" depart="120.00">
        <route edges="-81824402#5 -81824402#4 -81824402#3 -81824402#2 -81824402#1 -81824402#0 937254712#0 937254712#1 937254712#2"/>
    </vehicle>
    <vehicle id="41" type="truck" depart="123.00">
        <route edges="-241204743#2 240510774 240510789 478427207#0 478427207#1 478427207#2 478427207#3 478427207#4 478427207#5 478427207#6 -320980932#0 -458050462#1 -458050463 240388167#3 -81824402#5"/>
    </vehicle>
    <vehicle id="42" type="normal_car" depart="126.00">
        <route edges="320980932#1 -320980932#1 -320980932#0 -320980931 320980930#0 320980930#1 320980930#2 -320980921#1 -320980921#0"/>
    </vehicle>
    <vehicle id="43" type="normal_car" depart="129.00">
        <route edges="-240506679 937254714#0 937254714#1 937254711#1 81824402#0 81824402#1 81824402#2 81824402#3 81824402#4 81824402#5 81824402#6 81824402#7 81824402#8 81824402#9 -320980937#1"/>
    </vehicle>
    <vehicle id="44" type="normal_car" depart="132.00">
        <route edges="395497867#2 81824402#1 81824402#2 81824402#3 -457863184#3 -457863184#2 -457863184#1 452262118#3 452262118#4 -478427207#5 320980934 320980933#1 320980933#2 458046371 478427205#5 478427205#6 478427205#7 -936774302#0"/>
    </vehicle>
    <vehicle id="45" type="normal_car" depart="135.00">
        <route edges="-320980921#1 452262118#1 452262118#2 452262118#3 452262118#4 -478427207#5 320980934 320980933#1 320980933#2 -243463807#3"/>
    </vehicle>
    <vehicle id="46" type="normal_car" depart="138.00">
        <route edges="-243399011#4 -243399011#3 -243399011#2 -243399011#1 -243399011#0 240388167#0 240388167#1 320980931"/>
    </vehicle>
    <vehicle id="47" type="truck" depart="141.00">
        <route edges="-240388167#0 -243463811 -478427207#3 -478427207#2 -478427207#1 -478427207#0 478427207#0"/>
    </vehicle>
    <vehicle id="48" type="normal_car" depart="144.00">
        <route edges="-320980921#1 452262118#1 452262118#2 452262118#3 452262118#4 -478427207#5 320980934 320980933#1 320980933#2 458046371 478427205#5 478427205#6 478427205#7 -936774302#0"/>
    </vehicle>
    <vehicle id="49" type="normal_car" depart="147.00">
        <route edges="-395957541#1 242554516#1 239842076#7 -79677810#2 -79677810#1 -79677810#0 -243399011#4 -243399011#3 -243399011#2 -243399011#1 -243399011#0 -243463811 -478427207#3"/>
    </vehicle>
    <vehicle id="50" type="normal_car" depart="150.00">
        <route edges="395957539#3 395957541#3 467066854#2 467066854#3 82161589#1 -395957539#4"/>
    </vehicle>
    <vehicle id="51" type="normal_car" depart="153.00">
        <route edges="-458458520 241204743#1 240510774 240510789 478427207#0"/>
    </vehicle>
    <vehicle id="52" type="normal_car" depart="156.00">
        <route edges="240363129#1 -467066854#2 -467066854#1 239842076#4 239842076#5 239842076#6 239842076#7 -79677810#2 -79677810#1 79677810#1"/>
    </vehicle>
    <vehicle id="53" type="truck" depart="159.00">
        <route edges="457158316#1 1021336271#2 454222936#0 1021336270#1 81824402#3 81824402#4 457869295#0"/>
    </vehicle>
    <vehicle id="54" type="truck" depart="162.00">
        <route edges="320980934 -320980933#0 -320980932#1 -320980932#0 -320980931 320980930#0 457863184#2"/>
    </vehicle>
    <vehicle id="55" type="normal_car" depart="165.00">
        <route edges="-240388158#2 240388158#2 458243011#0 458243011#1 243443852#0 243443852#1 243443852#2 452262118#0 320980921#1 320980921#2"/>
    </vehicle>
    <vehicle id="56" type="normal_car" depart="168.00">
        <route edges="467066854#1 467066854#2 -240363129#1 -240363129#0 -239842076#1 -239842076#0 -243443852#6"/>
    </vehicle>
    <vehicle id="57" type="normal_car" depart="171.00">
        <route edges="239842076#2 239842076#3 -467066854#0 -395957539#1 -395957539#0 -243443852#1 -243443852#0 -458243011#1 -458243011#0 -240510777#1 -240510777#0"/>
    </vehicle>
    <vehicle id="58" type="normal_car" depart="174.00">
        <route edges="476635865#2 476635865#3 458441685#0 458441685#1 240388158#0 240388158#1 240388158#2 458243011#0 458243011#1 243443852#0 240542394 467066854#0 467066854#1 467066854#2 467066854#3 -82161589#0"/>
    </vehicle>
    <vehicle id="59" type="truck" depart="177.00">
        <route edges="-458441685#1 478427205#3 478427205#4 478427205#5 478427205#6 478427205#7 -936774302#0 240506675"/>
    </vehicle>
    <vehicle id="60" type="normal_car" depart="180.00">
        <route edges="-81824402#8 -478427207#7 -478427207#6 -478427207#5 -478427207#4 -478427207#3 -478427207#2 -478427207#1 -478427207#0 -240510789 -240510774 -241204743#1 458458520 -458458521#0"/>
    </vehicle>
    <vehicle id="61" type="normal_car" depart="183.00">
        <route edges="-320980933#0 -320980932#1 -320980932#0 -320980931 320980930#0 320980930#1 320980930#2 320980930#3 243443852#5 243443852#6 243443852#7 937254712#0 937254712#1 -937254714#0 240506679"/>
    </vehicle>
    <vehicle id="62" type="normal_car" depart="186.00">
        <route edges="-457869295#0 -81824402#4 -81824402#3 -81824402#2 -81824402#1 -81824402#0 937254712#0 -240392104#1 240392104#1"/>
    </vehicle>
    <vehicle id="63" type="normal_car" depart="189.00">
        <route edges="-320980921#1 452262118#1 452262118#2 452262118#3 240388167#1 320980931 -458050462#1 458050462#1"/>
    </vehicle>
    <vehicle id="64" type="normal_car" depart="192.00">
        <route edges="243443852#5 243443852#6"/>
    </vehicle>
    <vehicle id="65" type="normal_car" depart="195.00">
        <route edges="395957539#3 -395957539#3 -395957539#2 -395957539#1 -395957539#0 243443852#2 452262118#0 452262118#1 452262118#2 452262118#3 452262118#4 -478427207#5 320980934 320980933#1 320980935#0 320980935#1 320980936#1"/>
    </vehicle>
    <vehicle id="66" type="truck" depart="198.00">
        <route edges="81824402#9 -81824402#9 -81824402#8 -478427207#7 -478427207#6 -478427207#5 -478427207#4 243463811 243399011#0 -458441685#4 458450909#0 458450909#1 458450909#2"/>
    </vehicle>
    <vehicle id="67" type="normal_car" depart="201.00">
        <route edges="467066854#2 -240363129#1 -240363129#0 -239842076#1 395957542#0 395957542#1 -243443852#5 243443852#5"/>
    </vehicle>
    <vehicle id="68" type="normal_car" depart="204.00">
        <route edges="457863184#0 -457863184#0 320980919#0 320980919#1 320980919#2 395957539#0 395957539#1 467066854#0 467066854#1 467066854#2 467066854#3 82161589#1 -395957539#4"/>
    </vehicle>
    <vehicle id="69" type="truck" depart="207.00">
        <route edges="243399011#4 -458243011#1 -458243011#0 -240388158#2 -240388158#1 -240388158#0 -458441685#1 -458441685#0 458441685#0"/>
    </vehicle>
    <vehicle id="70" type="normal_car" depart="210.00">
        <route edges="-395957539#1 395957539#1 467066854#0 467066854#1 467066854#2 467066854#3 -82161589#0"/>
    </vehicle>
    <vehicle id="71" type="normal_car" depart="213.00">
        <route edges="-395957541#2 395957541#2 -395957539#3 -395957539#2 -395957539#1 -395957539#0 243443852#2 452262118#0 452262118#1 452262118#2 452262118#3 240388167#1 240388167#2 240388167#3 -240388167#3"/>
    </vehicle>
    <vehicle id="72" type="normal_car" depart="216.00">
        <route edges="79677810#2 -239842076#7 -239842076#6 -239842076#5 -239842076#4 -239842076#3 -239842076#2 -239842076#1 395957542#0 395957542#1 -395957542#1"/>
    </vehicle>
    <vehicle id="73" type="normal_car" depart="219.00">
        <route edges="240363129#0 240363129#1 -467066854#2 -467066854#1 -467066854#0 -395957539#1 -395957539#0 -243443852#1 -243443852#0 -243399011#4 -243399011#3 -243399011#2 243399011#2"/>
    </vehicle>
    <vehicle id="74" type="normal_car" depart="222.00">
        <route edges="478427205#7 -936774302#0 240506675"/>
    </vehicle>
    <vehicle id="75" type="normal_car" depart="225.00">
        <route edges="-239842081#1 239842081#1 239842081#2 320980936#0 320980936#1 320980936#2 -320980936#2"/>
    </vehicle>
    <vehicle id="76" type="normal_car" depart="228.00">
        <route edges="-467066854#0 -395957539#1 -395957539#0 243443852#2 243443852#3 -240363126#1 240363126#1"/>
    </vehicle>
    <vehicle id="77" type="normal_car" depart="231.00">
        <route edges="79677810#3 395957541#0 395957541#1 395957541#2 395957541#3 467066854#2 467066854#3 -82161589#0 937254714#0 937254714#1 -937254714#1"/>
    </vehicle>
    <vehicle id="78" type="normal_car" depart="234.00">
        <route edges="395497867#0 395497867#1 395497867#2 81824402#1 81824402#2 81824402#3 -457863184#3 -457863184#2 -457863184#1 -457863184#0 -240392105#1 -240392105#0 -458441685#4 -458441685#3 -458441685#2"/>
    </vehicle>
    <vehicle id="79" type="normal_car" depart="237.00">
        <route edges="-395957539#0 -243443852#1 -243443852#0 79677810#0 79677810#1 79677810#2 79677810#3 -79677810#3"/>
    </vehicle>
    <vehicle id="80" type="normal_car" depart="240.00">
        <route edges="-457863184#3 -457863184#2 320980930#1 320980930#2 320980930#3 243443852#5 243443852#6 243443852#7 937254712#0 937254712#1 -937254714#0 240506679"/>
    </vehicle>
    <vehicle id="81" type="normal_car" depart="243.00">
        <route edges="240363129#0 -240363129#0 -239842076#1 395957542#0 395957542#1 -243443852#5 -243443852#4 -243443852#3 452262118#0 452262118#1 452262118#2 452262118#3 240388167#1 320980931 -458050462#1 458050462#1"/>
    </vehicle>
    <vehicle id="82" type="normal_car" depart="246.00">
        <route edges="395497867#2 -395497867#2 457158316#0 -457158316#0"/>
    </vehicle>
    <vehicle id="83" type="normal_car" depart="249.00">
        <route edges="-240510774 240510774 240510789 478427207#0 478427207#1 478427207#2 478427207#3 243463811 243399011#0 240392105#0 240392105#1 457863184#0 457863184#1 457863184#2 457863184#3 -81824402#3 -81824402#2 -81824402#1"/>
    </vehicle>
    <vehicle id="84" type="normal_car" depart="252.00">
        <route edges="-240363126#1 240363126#1 -243443852#3 452262118#0 452262118#1 452262118#2 -457863184#0 -240392105#1 -240392105#0 -243399011#0"/>
    </vehicle>
    <vehicle id="85" type="normal_car" depart="255.00">
        <route edges="-239842081#0 239842081#0 239842081#1 239842081#2 320980936#0 320980936#1 320980937#0 320980932#4"/>
    </vehicle>
    <vehicle id="86" type="normal_car" depart="258.00">
        <route edges="458226302 -458226302 -320980935#0 -320980933#1 -320980933#0 -320980932#1 -320980932#0 -320980931 320980930#0 457863184#2 457863184#3 -81824402#3 -81824402#2 1021336271#0 1021336271#1 1021336271#2 1021336271#3"/>
    </vehicle>
    <vehicle id="87" type="truck" depart="261.00">
        <route edges="320980932#0 320980932#1 320980933#0 320980933#1 320980935#0 458226302 -243463807#2"/>
    </vehicle>
    <vehicle id="88" type="normal_car" depart="264.00">
        <route edges="-241204743#2 240510774 240510789 478427207#0 478427205#4 478427205#5 478427205#6 478427205#7 -936774302#0 240506675"/>
    </vehicle>
    <vehicle id="89" type="normal_car" depart="267.00">
        <route edges="454222936#0 1021336270#1 81824402#3 -457863184#3 -457863184#2 -457863184#1 -457863184#0 -240392105#1 -240392105#0 -243399011#0 -243463811 -478427207#3 -478427207#2 -478427207#1 -478427207#0 -240510789 -240510774 -241204743#1 241204743#1"/>
    </vehicle>
    <vehicle id="90" type="normal_car" depart="270.00">
        <route edges="-478427207#1 -478427207#0 476635865#3 458441685#0 458441685#1 240388158#0 240388158#1 240388158#2 458243011#0 458243011#1 243443852#0 240542394 -395957539#1"/>
    </vehicle>
    <vehicle id="91" type="truck" depart="273.00">
        <route edges="320980935#1 320980936#1 320980936#2"/>
    </vehicle>
    <vehicle id="92" type="normal_car" depart="276.00">
        <route edges="-454222938 -454222936#1 -454222936#0 1021336271#3 1021336271#4"/>
    </vehicle>
    <vehicle id="93" type="normal_car" depart="279.00">
        <route edges="-320980936#0 243463807#2 243463807#3 458046371"/>
    </vehicle>
    <vehicle id="94" type="normal_car" depart="282.00">
        <route edges="-457869295#1 457869295#1 -457863184#2 -457863184#1 -457863184#0 -240392105#1 -240392105#0 -458441685#4 -458441685#3 -458441685#2 -458441685#1 -458441685#0 476635865#4 240510777#0 240510777#1"/>
    </vehicle>
    <vehicle id="95" type="truck" depart="285.00">
        <route edges="240363129#1 -467066854#2 -467066854#1 -467066854#0 -395957539#1 -395957539#0 -243443852#1 -243443852#0 -458243011#1 -458243011#0 -240388158#2 -240388158#1 -240388158#0 -458441685#1 478427205#3 478427205#4 478427205#5 478427205#6 478427205#7 478427205#8"/>
    </vehicle>
    <vehicle id="96" type="normal_car" depart="288.00">
        <route edges="457863184#3 -457863184#3 -457863184#2 -457863184#1 452262118#3 452262118#4 -478427207#5 320980934 320980933#1 320980933#2 458046371 478427205#5 478427205#6 478427205#7 936774302#1"/>
    </vehicle>
    <vehicle id="97" type="truck" depart="291.00">
        <route edges="81824402#4 457869295#0"/>
    </vehicle>
    <vehicle id="98" type="normal_car" depart="294.00">
        <route edges="-320980921#2"/>
    </vehicle>
    <vehicle id="99" type="normal_car" depart="297.00">
        <route edges="-395957542#0 395957542#0 395957542#1 -243443852#5 -243443852#4 -243443852#3 452262118#0 452262118#1 452262118#2 -457863184#0 -240392105#1 -320980926#1"/>
    </vehicle>
    <vehicle id="100" type="normal_car" depart="300.00">
        <route edges="-458050462#0 -81824402#6 -240388167#3 -240388167#2 -240388167#1 -240388167#0 243399011#0 243399011#1 243399011#2 243399011#3 243399011#4 243443852#0"/>
    </vehicle>
    <vehicle id="101" type="normal_car" depart="303.00">
        <route edges="-454222936#2 -454222936#1 1021336270#1 -81824402#2 -81824402#1 -320980921#2 320980930#3 243443852#5 -243443852#5"/>
    </vehicle>
    <vehicle id="102" type="truck" depart="306.00">
        <route edges="467066854#2 -467066854#2 -467066854#1 -467066854#0 -395957539#1 -395957539#0 243443852#2 452262118#0 452262118#1 452262118#2 452262118#3 452262118#4 -478427207#5 320980934 320980933#1 320980935#0 320980935#1 320980936#1 320980936#2"/>
    </vehicle>
    <vehicle id="103" type="normal_car" depart="309.00">
        <route edges="-320980937#1 -320980932#3 -320980932#2 -320980932#1 -478427207#6 -478427207#5 -478427207#4 243463811 243399011#0 243399011#1 -243399011#1"/>
    </vehicle>
    <vehicle id="104" type="truck" depart="312.00">
        <route edges="-458458521#1 -458458520 241204743#1 240510774 240510789 476635865#3 458441685#0 458441685#1 240388158#0 240388158#1 240388158#2 458243011#0 458243011#1 79677810#0 79677810#1 452207717 458243010#1"/>
    </vehicle>
    <vehicle id="105" type="normal_car" depart="315.00">
        <route edges="239842076#2 239842076#3 -467066854#0 -395957539#1 -395957539#0 243443852#2 452262118#0 452262118#1 452262118#2 452262118#3 240388167#1 240388167#2 240388167#3 81824402#6 81824402#7 81824402#8 81824402#9 81824402#10"/>
    </vehicle>
    <vehicle id="106" type="normal_car" depart="318.00">
        <route edges="-243463807#3 243463807#3 243463807#4 243463811 243399011#0 240392105#0 240392105#1 320980919#0 320980919#1 320980919#2 243443852#2 243443852#3"/>
    </vehicle>
    <vehicle id="107" type="normal_car" depart="321.00">
        <route edges="478427207#4 478427207#5 478427207#6 -320980932#0 -320980931 320980930#0 457863184#2 457863184#3 -81824402#3"/>
    </vehicle>
    <vehicle id="108" type="normal_car" depart="324.00">
        <route edges="937254711#1 81824402#0 81824402#1 81824402#2 81824402#3 -457863184#3 -457863184#2 457863184#2"/>
    </vehicle>
    <vehicle id="109" type="normal_car" depart="327.00">
        <route edges="478427207#2 478427207#3 243463811 243399011#0 240392105#0 240392105#1 457863184#0 457863184#1 457863184#2 -457869295#1 -457869295#0 -81824402#4"/>
    </vehicle>
    <vehicle id="110" type="normal_car" depart="330.00">
        <route edges="-243399011#0 243399011#0 240392105#0 240392105#1 457863184#0 457863184#1 457863184#2 457863184#3 -81824402#3 -81824402#2 1021336271#0 1021336271#1 1021336271#2 454222936#0 1021336270#1"/>
    </vehicle>
    <vehicle id="111" type="normal_car" depart="333.00">
        <route edges="476635865#0 476635865#1 476635865#2 -240510789 -240510774 -241204743#1 458458520 458458521#1"/>
    </vehicle>
    <vehicle id="112" type="normal_car" depart="336.00">
        <route edges="-240388157 478427207#3 243463811 243399011#0 240392105#0 240392105#1 457863184#0 457863184#1 320980930#1 320980930#2 320980930#3 243443852#5 243443852#6 243443852#7 937254712#0 937254712#1 937254714#1 937254711#1"/>
    </vehicle>
    <vehicle id="113" type="normal_car" depart="339.00">
        <route edges="239842081#2 243463807#2 -458226302 -320980935#0 320980933#2"/>
    </vehicle>
    <vehicle id="114" type="normal_car" depart="342.00">
        <route edges="-457869295#0 81824402#5 81824402#6"/>
    </vehicle>
    <vehicle id="115" type="normal_car" depart="345.00">
        <route edges="452262118#4 478427207#6 -320980932#0 -320980931 320980930#0 320980930#1 320980930#2 320980930#3 243443852#5 243443852#6 243443852#7 937254712#0 -240392104#1 240392104#1"/>
    </vehicle>
    <vehicle id="116" type="normal_car" depart="348.00">
        <route edges="243399011#1 -243399011#1 -243399011#0 -243463811 478427207#4 320980934 320980933#1 320980935#0"/>
    </vehicle>
    <vehicle id="117" type="normal_car" depart="351.00">
        <route edges="-395957543 239842076#1 239842076#2 239842076#3 239842076#4 395957539#3"/>
    </vehicle>
    <vehicle id="118" type="truck" depart="354.00">
        <route edges="320980930#3 -243443852#4 -243443852#3 -243443852#2 395957539#0 395957539#1 395957539#2 -239842076#4"/>
    </vehicle>
    <vehicle id="119" type="normal_car" depart="357.00">
        <route edges="320980930#0 -457863184#1 -457863184#0 -240392105#1 -240392105#0 -243399011#0 -243463811 478427207#4"/>
    </vehicle>
    <vehicle id="120" type="normal_car" depart="360.00">
        <route edges="239842076#3 -467066854#0 -395957539#1 -395957539#0 -243443852#1 -243443852#0 -243399011#4 -243399011#3 -243399011#2 -243399011#1 -243399011#0 -243463811 -478427207#3 -478427207#2"/>
    </vehicle>
    <vehicle id="121" type="normal_car" depart="363.00">
        <route edges="395957542#1 243443852#6 243443852#7 81824402#0"/>
    </vehicle>
    <vehicle id="122" type="normal_car" depart="366.00">
        <route edges="708426663 240388157 458450909#0 458401302 243399011#3 243399011#4 243443852#0 240542394 467066854#0 -239842076#3 -239842076#2 -239842076#1"/>
    </vehicle>
    <vehicle id="123" type="normal_car" depart="369.00">
        <route edges="-458226302 -320980935#0 -320980933#1 -320980933#0 -320980932#1 -320980932#0 -320980931 320980930#0 320980930#1 320980930#2 320980930#3 243443852#5 -395957542#1 -395957542#0 239842076#1 240363129#0 240363129#1 467066854#3"/>
    </vehicle>
    <vehicle id="124" type="truck" depart="372.00">
        <route edges="-243463807#4 243463807#4 243463811 243399011#0 -458441685#4"/>
    </vehicle>
    <vehicle id="125" type="truck" depart="375.00">
        <route edges="-81824402#9 -81824402#8 81824402#8"/>
    </vehicle>
    <vehicle id="126" type="normal_car" depart="378.00">
        <route edges="240392105#1 -240392105#1 -240392105#0 243399011#1"/>
    </vehicle>
    <vehicle id="127" type="truck" depart="381.00">
        <route edges="320980936#3 -81824402#8 -81824402#7 -81824402#6 -81824402#5 457869295#0 457869296"/>
    </vehicle>
    <vehicle id="128" type="normal_car" depart="384.00">
        <route edges="478427207#4 -478427207#4 243463811 243399011#0 243399011#1"/>
    </vehicle>
    <vehicle id="129" type="normal_car" depart="387.00">