<?xml version="1.0" encoding="UTF-8"?>

<!-- generated on 2022-02-23 15:01:12 by Eclipse SUMO netconvert Version 1.12.0
<configuration xmlns:xsi="http://www.w3.org/2001/XMLSchema-instance" xsi:noNamespaceSchemaLocation="http://sumo.dlr.de/xsd/netconvertConfiguration.xsd">

    <input>
        <osm-files value="export.osm"/>
    </input>

    <output>
        <output-file value="export.net.xml"/>
    </output>

    <projection>
        <proj.utm value="true"/>
    </projection>

    <report>
        <aggregate-warnings value="5"/>
    </report>

</configuration>
-->

<net version="1.9" junctionCornerDetail="5" limitTurnSpeed="5.50" xmlns:xsi="http://www.w3.org/2001/XMLSchema-instance" xsi:noNamespaceSchemaLocation="http://sumo.dlr.de/xsd/net_file.xsd">

    <location netOffset="-464583.38,-3859381.48" convBoundary="0.00,0.00,1692.82,1725.50" origBoundary="128.612430,34.876231,128.630970,34.891785" projParameter="+proj=utm +zone=52 +ellps=WGS84 +datum=WGS84 +units=m +no_defs"/>

    <type id="highway.bridleway" priority="1" numLanes="1" speed="2.78" allow="pedestrian" oneway="1" width="2.00"/>
    <type id="highway.bus_guideway" priority="1" numLanes="1" speed="27.78" allow="bus" oneway="1"/>
    <type id="highway.cycleway" priority="1" numLanes="1" speed="8.33" allow="bicycle" oneway="0" width="1.00"/>
    <type id="highway.footway" priority="1" numLanes="1" speed="2.78" allow="pedestrian" oneway="1" width="2.00"/>
    <type id="highway.ford" priority="1" numLanes="1" speed="2.78" allow="army" oneway="0"/>
    <type id="highway.living_street" priority="2" numLanes="1" speed="2.78" disallow="tram rail_urban rail rail_electric rail_fast ship" oneway="0"/>
    <type id="highway.motorway" priority="14" numLanes="2" speed="39.44" allow="private emergency authority army vip passenger hov taxi bus coach delivery truck trailer motorcycle evehicle custom1 custom2" oneway="1"/>
    <type id="highway.motorway_link" priority="9" numLanes="1" speed="22.22" allow="private emergency authority army vip passenger hov taxi bus coach delivery truck trailer motorcycle evehicle custom1 custom2" oneway="1"/>
    <type id="highway.path" priority="1" numLanes="1" speed="2.78" allow="pedestrian bicycle" oneway="0" width="2.00"/>
    <type id="highway.pedestrian" priority="1" numLanes="1" speed="2.78" allow="pedestrian" oneway="1" width="2.00"/>
    <type id="highway.primary" priority="12" numLanes="2" speed="27.78" disallow="tram rail_urban rail rail_electric rail_fast ship" oneway="0"/>
    <type id="highway.primary_link" priority="7" numLanes="1" speed="22.22" disallow="tram rail_urban rail rail_electric rail_fast ship" oneway="0"/>
    <type id="highway.raceway" priority="15" numLanes="2" speed="83.33" allow="vip" oneway="0"/>
    <type id="highway.residential" priority="3" numLanes="1" speed="13.89" disallow="tram rail_urban rail rail_electric rail_fast ship" oneway="0"/>
    <type id="highway.secondary" priority="11" numLanes="1" speed="27.78" disallow="tram rail_urban rail rail_electric rail_fast ship" oneway="0"/>
    <type id="highway.secondary_link" priority="6" numLanes="1" speed="22.22" disallow="tram rail_urban rail rail_electric rail_fast ship" oneway="0"/>
    <type id="highway.service" priority="1" numLanes="1" speed="5.56" allow="pedestrian delivery bicycle" oneway="0"/>
    <type id="highway.stairs" priority="1" numLanes="1" speed="1.39" allow="pedestrian" oneway="1" width="2.00"/>
    <type id="highway.step" priority="1" numLanes="1" speed="1.39" allow="pedestrian" oneway="1" width="2.00"/>
    <type id="highway.steps" priority="1" numLanes="1" speed="1.39" allow="pedestrian" oneway="1" width="2.00"/>
    <type id="highway.tertiary" priority="10" numLanes="1" speed="22.22" disallow="tram rail_urban rail rail_electric rail_fast ship" oneway="0"/>
    <type id="highway.tertiary_link" priority="5" numLanes="1" speed="22.22" disallow="tram rail_urban rail rail_electric rail_fast ship" oneway="0"/>
    <type id="highway.track" priority="1" numLanes="1" speed="5.56" allow="pedestrian motorcycle moped bicycle" oneway="0"/>
    <type id="highway.trunk" priority="13" numLanes="2" speed="27.78" disallow="pedestrian bicycle tram rail_urban rail rail_electric rail_fast ship" oneway="0"/>
    <type id="highway.trunk_link" priority="8" numLanes="1" speed="22.22" disallow="pedestrian bicycle tram rail_urban rail rail_electric rail_fast ship" oneway="0"/>
    <type id="highway.unclassified" priority="4" numLanes="1" speed="13.89" disallow="tram rail_urban rail rail_electric rail_fast ship" oneway="0"/>
    <type id="highway.unsurfaced" priority="1" numLanes="1" speed="8.33" disallow="tram rail_urban rail rail_electric rail_fast ship" oneway="0"/>
    <type id="railway.highspeed" priority="21" numLanes="1" speed="69.44" allow="rail_fast" oneway="1"/>
    <type id="railway.light_rail" priority="19" numLanes="1" speed="27.78" allow="rail_urban" oneway="1"/>
    <type id="railway.preserved" priority="16" numLanes="1" speed="27.78" allow="rail" oneway="1"/>
    <type id="railway.rail" priority="20" numLanes="1" speed="44.44" allow="rail" oneway="1"/>
    <type id="railway.subway" priority="18" numLanes="1" speed="27.78" allow="rail_urban" oneway="1"/>
    <type id="railway.tram" priority="17" numLanes="1" speed="13.89" allow="tram" oneway="1"/>

    <edge id=":2476266077_0" function="internal">
        <lane id=":2476266077_0_0" index="0" disallow="tram rail_urban rail rail_electric rail_fast ship" speed="22.22" length="36.43" shape="1458.34,599.58 1428.91,578.12"/>
    </edge>
    <edge id=":2476266077_1" function="internal">
        <lane id=":2476266077_1_0" index="0" disallow="tram rail_urban rail rail_electric rail_fast ship" speed="5.88" length="1.96" shape="1458.34,599.58 1457.34,597.89"/>
    </edge>
    <edge id=":2476266077_2" function="internal">
        <lane id=":2476266077_2_0" index="0" disallow="tram rail_urban rail rail_electric rail_fast ship" speed="3.65" length="1.44" shape="1458.34,599.58 1457.86,598.22"/>
    </edge>
    <edge id=":2476266077_9" function="internal">
        <lane id=":2476266077_9_0" index="0" disallow="tram rail_urban rail rail_electric rail_fast ship" speed="5.88" length="12.61" shape="1457.34,597.89 1456.45,596.38 1457.21,592.89 1459.85,590.49 1463.57,590.54"/>
    </edge>
    <edge id=":2476266077_10" function="internal">
        <lane id=":2476266077_10_0" index="0" disallow="tram rail_urban rail rail_electric rail_fast ship" speed="3.65" length="3.23" shape="1457.86,598.22 1458.01,597.34 1458.81,596.93 1460.25,597.00"/>
    </edge>
    <edge id=":2476266077_3" function="internal">
        <lane id=":2476266077_3_0" index="0" disallow="tram rail_urban rail rail_electric rail_fast ship" speed="6.55" length="18.61" shape="1462.29,593.47 1455.93,590.97 1453.47,590.73 1454.91,592.74 1460.25,597.00"/>
    </edge>
    <edge id=":2476266077_4" function="internal">
        <lane id=":2476266077_4_0" index="0" disallow="tram rail_urban rail rail_electric rail_fast ship" speed="18.05" length="36.75" shape="1462.29,593.47 1455.73,590.61 1445.45,586.07 1435.25,581.39 1428.91,578.12"/>
    </edge>
    <edge id=":2476266077_5" function="internal">
        <lane id=":2476266077_5_0" index="0" disallow="tram rail_urban rail rail_electric rail_fast ship" speed="3.65" length="4.67" shape="1462.29,593.47 1461.51,592.26 1461.46,591.36 1462.15,590.79 1463.57,590.54"/>
    </edge>
    <edge id=":2476266077_6" function="internal">
        <lane id=":2476266077_6_0" index="0" disallow="tram rail_urban rail rail_electric rail_fast ship" speed="18.05" length="36.22" shape="1430.65,575.44 1436.92,578.67 1446.96,583.26 1457.08,587.72 1463.57,590.54"/>
    </edge>
    <edge id=":2476266077_7" function="internal">
        <lane id=":2476266077_7_0" index="0" disallow="tram rail_urban rail rail_electric rail_fast ship" speed="22.22" length="36.62" shape="1430.65,575.44 1460.25,597.00"/>
    </edge>
    <edge id=":2476266077_8" function="internal">
        <lane id=":2476266077_8_0" index="0" disallow="tram rail_urban rail rail_electric rail_fast ship" speed="3.65" length="1.44" shape="1430.65,575.44 1431.22,576.77"/>
    </edge>
    <edge id=":2476266077_11" function="internal">
        <lane id=":2476266077_11_0" index="0" disallow="tram rail_urban rail rail_electric rail_fast ship" speed="3.65" length="3.23" shape="1431.22,576.77 1431.12,577.66 1430.35,578.11 1428.91,578.12"/>
    </edge>
    <edge id=":2476266091_0" function="internal">
        <lane id=":2476266091_0_0" index="0" disallow="tram rail_urban rail rail_electric rail_fast ship" speed="27.78" length="14.38" shape="1184.26,854.03 1178.97,867.34"/>
        <lane id=":2476266091_0_1" index="1" disallow="tram rail_urban rail rail_electric rail_fast ship" speed="27.78" length="14.38" shape="1181.31,852.81 1175.97,866.22"/>
    </edge>
    <edge id=":2476266091_2" function="internal">
        <lane id=":2476266091_2_0" index="0" disallow="tram rail_urban rail rail_electric rail_fast ship" speed="8.27" length="3.91" shape="1181.31,852.81 1179.22,856.12"/>
    </edge>
    <edge id=":2476266091_3" function="internal">
        <lane id=":2476266091_3_0" index="0" disallow="tram rail_urban rail rail_electric rail_fast ship" speed="3.65" length="1.44" shape="1181.31,852.81 1180.11,853.61"/>
    </edge>
    <edge id=":2476266091_11" function="internal">
        <lane id=":2476266091_11_0" index="0" disallow="tram rail_urban rail rail_electric rail_fast ship" speed="8.27" length="14.85" shape="1179.22,856.12 1178.71,856.92 1175.34,858.59 1171.18,857.80 1166.24,854.57"/>
    </edge>
    <edge id=":2476266091_12" function="internal">
        <lane id=":2476266091_12_0" index="0" disallow="tram rail_urban rail rail_electric rail_fast ship" speed="3.65" length="3.23" shape="1180.11,853.61 1179.22,853.67 1178.63,853.00 1178.35,851.59"/>
    </edge>
    <edge id=":2476266091_4" function="internal">
        <lane id=":2476266091_4_0" index="0" disallow="tram rail_urban rail rail_electric rail_fast ship" speed="5.95" length="9.09" shape="1168.29,852.12 1170.51,853.49 1172.44,853.66 1174.06,852.62 1175.39,850.37"/>
    </edge>
    <edge id=":2476266091_5" function="internal">
        <lane id=":2476266091_5_0" index="0" disallow="tram rail_urban rail rail_electric rail_fast ship" speed="10.04" length="16.98" shape="1168.29,852.12 1172.47,856.09 1175.14,859.76 1176.31,863.14 1175.97,866.22"/>
    </edge>
    <edge id=":2476266091_6" function="internal">
        <lane id=":2476266091_6_0" index="0" disallow="tram rail_urban rail rail_electric rail_fast ship" speed="3.65" length="4.67" shape="1168.29,852.12 1168.70,853.50 1168.49,854.37 1167.67,854.73 1166.24,854.57"/>
    </edge>
    <edge id=":2476266091_7" function="internal">
        <lane id=":2476266091_7_0" index="0" disallow="tram rail_urban rail rail_electric rail_fast ship" speed="8.12" length="10.84" shape="1169.97,863.99 1170.41,861.60 1169.93,859.23 1168.54,856.89 1166.24,854.57"/>
    </edge>
    <edge id=":2476266091_8" function="internal">
        <lane id=":2476266091_8_0" index="0" disallow="tram rail_urban rail rail_electric rail_fast ship" speed="27.78" length="14.61" shape="1169.97,863.99 1175.39,850.37"/>
        <lane id=":2476266091_8_1" index="1" disallow="tram rail_urban rail rail_electric rail_fast ship" speed="27.78" length="14.61" shape="1172.97,865.11 1178.35,851.59"/>
    </edge>
    <edge id=":2476266091_10" function="internal">
        <lane id=":2476266091_10_0" index="0" disallow="tram rail_urban rail rail_electric rail_fast ship" speed="3.65" length="1.44" shape="1172.97,865.11 1174.14,864.26"/>
    </edge>
    <edge id=":2476266091_13" function="internal">
        <lane id=":2476266091_13_0" index="0" disallow="tram rail_urban rail rail_electric rail_fast ship" speed="3.65" length="3.23" shape="1174.14,864.26 1175.03,864.16 1175.64,864.82 1175.97,866.22"/>
    </edge>
    <edge id=":2476266113_0" function="internal">
        <lane id=":2476266113_0_0" index="0" disallow="tram rail_urban rail rail_electric rail_fast ship" speed="6.46" length="8.70" shape="850.33,1231.25 847.81,1230.46 845.72,1230.51 844.07,1231.39 842.85,1233.10"/>
    </edge>
    <edge id=":2476266113_1" function="internal">
        <lane id=":2476266113_1_0" index="0" disallow="tram rail_urban rail rail_electric rail_fast ship" speed="13.89" length="14.98" shape="850.33,1231.25 847.08,1229.43 844.05,1227.22 841.05,1224.95 837.87,1222.98"/>
    </edge>
    <edge id=":2476266113_2" function="internal">
        <lane id=":2476266113_2_0" index="0" disallow="tram rail_urban rail rail_electric rail_fast ship" speed="8.05" length="15.14" shape="850.33,1231.25 847.69,1228.93 846.21,1225.34 845.92,1221.32 846.90,1217.73"/>
    </edge>
    <edge id=":2476266113_3" function="internal">
        <lane id=":2476266113_3_0" index="0" disallow="tram rail_urban rail rail_electric rail_fast ship" speed="3.72" length="4.94" shape="850.33,1231.25 849.97,1229.77 850.23,1228.86 851.12,1228.52 852.62,1228.76"/>
    </edge>
    <edge id=":2476266113_4" function="internal">
        <lane id=":2476266113_4_0" index="0" disallow="tram rail_urban rail rail_electric rail_fast ship" speed="7.10" length="11.55" shape="849.73,1219.22 848.59,1222.34 848.69,1224.97 850.03,1227.11 852.62,1228.76"/>
    </edge>
    <edge id=":2476266113_5" function="internal">
        <lane id=":2476266113_5_0" index="0" disallow="tram rail_urban rail rail_electric rail_fast ship" speed="13.89" length="15.49" shape="849.73,1219.22 842.85,1233.10"/>
    </edge>
    <edge id=":2476266113_6" function="internal">
        <lane id=":2476266113_6_0" index="0" disallow="tram rail_urban rail rail_electric rail_fast ship" speed="8.02" length="3.87" shape="849.73,1219.22 847.46,1222.36"/>
    </edge>
    <edge id=":2476266113_7" function="internal">
        <lane id=":2476266113_7_0" index="0" disallow="tram rail_urban rail rail_electric rail_fast ship" speed="3.65" length="1.44" shape="849.73,1219.22 848.46,1219.91"/>
    </edge>
    <edge id=":2476266113_16" function="internal">
        <lane id=":2476266113_16_0" index="0" disallow="tram rail_urban rail rail_electric rail_fast ship" speed="8.02" length="10.28" shape="847.46,1222.36 844.73,1224.04 841.53,1224.24 837.87,1222.98"/>
    </edge>
    <edge id=":2476266113_17" function="internal">
        <lane id=":2476266113_17_0" index="0" disallow="tram rail_urban rail rail_electric rail_fast ship" speed="3.65" length="3.23" shape="848.46,1219.91 847.57,1219.90 847.05,1219.17 846.90,1217.73"/>
    </edge>
    <edge id=":2476266113_8" function="internal">
        <lane id=":2476266113_8_0" index="0" disallow="tram rail_urban rail rail_electric rail_fast ship" speed="6.53" length="9.03" shape="839.33,1220.13 841.67,1220.94 843.71,1220.81 845.45,1219.74 846.90,1217.73"/>
    </edge>
    <edge id=":2476266113_9" function="internal">
        <lane id=":2476266113_9_0" index="0" disallow="tram rail_urban rail rail_electric rail_fast ship" speed="13.89" length="15.86" shape="839.33,1220.13 842.64,1222.16 845.93,1224.55 849.24,1226.89 852.62,1228.76"/>
    </edge>
    <edge id=":2476266113_10" function="internal">
        <lane id=":2476266113_10_0" index="0" disallow="tram rail_urban rail rail_electric rail_fast ship" speed="8.16" length="14.45" shape="839.33,1220.13 841.78,1222.43 843.26,1225.84 843.65,1229.64 842.85,1233.10"/>
    </edge>
    <edge id=":2476266113_11" function="internal">
        <lane id=":2476266113_11_0" index="0" disallow="tram rail_urban rail rail_electric rail_fast ship" speed="3.65" length="4.67" shape="839.33,1220.13 840.03,1221.39 840.03,1222.29 839.30,1222.82 837.87,1222.98"/>
    </edge>
    <edge id=":2476266113_12" function="internal">
        <lane id=":2476266113_12_0" index="0" disallow="tram rail_urban rail rail_electric rail_fast ship" speed="6.94" length="10.16" shape="839.95,1231.73 840.92,1228.87 840.89,1226.45 839.88,1224.49 837.87,1222.98"/>
    </edge>
    <edge id=":2476266113_13" function="internal">
        <lane id=":2476266113_13_0" index="0" disallow="tram rail_urban rail rail_electric rail_fast ship" speed="13.89" length="15.63" shape="839.95,1231.73 846.90,1217.73"/>
    </edge>
    <edge id=":2476266113_14" function="internal">
        <lane id=":2476266113_14_0" index="0" disallow="tram rail_urban rail rail_electric rail_fast ship" speed="8.21" length="3.49" shape="839.95,1231.73 841.99,1228.90"/>
    </edge>
    <edge id=":2476266113_15" function="internal">
        <lane id=":2476266113_15_0" index="0" disallow="tram rail_urban rail rail_electric rail_fast ship" speed="3.65" length="1.44" shape="839.95,1231.73 841.19,1230.99"/>
    </edge>
    <edge id=":2476266113_18" function="internal">
        <lane id=":2476266113_18_0" index="0" disallow="tram rail_urban rail rail_electric rail_fast ship" speed="8.21" length="11.19" shape="841.99,1228.90 844.78,1227.46 848.33,1227.41 852.62,1228.76"/>
    </edge>
    <edge id=":2476266113_19" function="internal">
        <lane id=":2476266113_19_0" index="0" disallow="tram rail_urban rail rail_electric rail_fast ship" speed="3.65" length="3.23" shape="841.19,1230.99 842.08,1230.97 842.63,1231.67 842.85,1233.10"/>
    </edge>
    <edge id=":2476266124_0" function="internal">
        <lane id=":2476266124_0_0" index="0" disallow="tram rail_urban rail rail_electric rail_fast ship" speed="6.34" length="9.04" shape="1229.99,758.16 1227.61,757.35 1225.61,757.53 1223.97,758.70 1222.69,760.85"/>
    </edge>
    <edge id=":2476266124_1" function="internal">
        <lane id=":2476266124_1_0" index="0" disallow="tram rail_urban rail rail_electric rail_fast ship" speed="22.22" length="21.73" shape="1229.99,758.16 1211.03,747.54"/>
    </edge>
    <edge id=":2476266124_2" function="internal">
        <lane id=":2476266124_2_0" index="0" disallow="tram rail_urban rail rail_electric rail_fast ship" speed="9.18" length="18.00" shape="1229.99,758.16 1225.48,755.18 1222.80,751.78 1221.95,747.96 1222.93,743.72"/>
    </edge>
    <edge id=":2476266124_3" function="internal">
        <lane id=":2476266124_3_0" index="0" disallow="tram rail_urban rail rail_electric rail_fast ship" speed="3.65" length="4.67" shape="1229.99,758.16 1229.28,756.90 1229.29,756.01 1230.01,755.48 1231.44,755.31"/>
    </edge>
    <edge id=":2476266124_4" function="internal">
        <lane id=":2476266124_4_0" index="0" disallow="tram rail_urban rail rail_electric rail_fast ship" speed="7.18" length="10.61" shape="1228.82,746.22 1227.97,749.18 1228.12,751.68 1229.28,753.72 1231.44,755.31"/>
    </edge>
    <edge id=":2476266124_5" function="internal">
        <lane id=":2476266124_5_0" index="0" disallow="tram rail_urban rail rail_electric rail_fast ship" speed="27.78" length="15.88" shape="1228.82,746.22 1222.69,760.85"/>
        <lane id=":2476266124_5_1" index="1" disallow="tram rail_urban rail rail_electric rail_fast ship" speed="27.78" length="15.88" shape="1225.87,744.97 1219.73,759.63"/>
    </edge>
    <edge id=":2476266124_7" function="internal">
        <lane id=":2476266124_7_0" index="0" disallow="tram rail_urban rail rail_electric rail_fast ship" speed="8.44" length="3.83" shape="1225.87,744.97 1223.76,748.16"/>
    </edge>
    <edge id=":2476266124_8" function="internal">
        <lane id=":2476266124_8_0" index="0" disallow="tram rail_urban rail rail_electric rail_fast ship" speed="3.65" length="1.44" shape="1225.87,744.97 1224.67,745.76"/>
    </edge>
    <edge id=":2476266124_18" function="internal">
        <lane id=":2476266124_18_0" index="0" disallow="tram rail_urban rail rail_electric rail_fast ship" speed="8.44" length="13.88" shape="1223.76,748.16 1223.47,748.60 1220.20,750.23 1216.05,749.88 1211.03,747.54"/>
    </edge>
    <edge id=":2476266124_19" function="internal">
        <lane id=":2476266124_19_0" index="0" disallow="tram rail_urban rail rail_electric rail_fast ship" speed="3.65" length="3.23" shape="1224.67,745.76 1223.77,745.82 1223.19,745.14 1222.93,743.72"/>
    </edge>
    <edge id=":2476266124_9" function="internal">
        <lane id=":2476266124_9_0" index="0" disallow="tram rail_urban rail rail_electric rail_fast ship" speed="6.21" length="9.05" shape="1212.70,744.81 1215.03,745.80 1217.02,745.75 1218.67,744.64 1219.98,742.47"/>
    </edge>
    <edge id=":2476266124_10" function="internal">
        <lane id=":2476266124_10_0" index="0" disallow="tram rail_urban rail rail_electric rail_fast ship" speed="22.22" length="21.49" shape="1212.70,744.81 1231.44,755.31"/>
    </edge>
    <edge id=":2476266124_11" function="internal">
        <lane id=":2476266124_11_0" index="0" disallow="tram rail_urban rail rail_electric rail_fast ship" speed="9.52" length="18.05" shape="1212.70,744.81 1217.08,748.14 1219.71,751.72 1220.59,755.55 1219.73,759.63"/>
    </edge>
    <edge id=":2476266124_12" function="internal">
        <lane id=":2476266124_12_0" index="0" disallow="tram rail_urban rail rail_electric rail_fast ship" speed="3.65" length="4.67" shape="1212.70,744.81 1213.30,746.11 1213.23,747.01 1212.47,747.48 1211.03,747.54"/>
    </edge>
    <edge id=":2476266124_13" function="internal">
        <lane id=":2476266124_13_0" index="0" disallow="tram rail_urban rail rail_electric rail_fast ship" speed="7.58" length="11.10" shape="1213.82,757.19 1214.62,754.21 1214.43,751.60 1213.23,749.38 1211.03,747.54"/>
    </edge>
    <edge id=":2476266124_14" function="internal">
        <lane id=":2476266124_14_0" index="0" disallow="tram rail_urban rail rail_electric rail_fast ship" speed="27.78" length="15.95" shape="1213.82,757.19 1219.98,742.47"/>
        <lane id=":2476266124_14_1" index="1" disallow="tram rail_urban rail rail_electric rail_fast ship" speed="27.78" length="15.95" shape="1216.77,758.41 1222.93,743.72"/>
    </edge>
    <edge id=":2476266124_16" function="internal">
        <lane id=":2476266124_16_0" index="0" disallow="tram rail_urban rail rail_electric rail_fast ship" speed="8.54" length="3.93" shape="1216.77,758.41 1218.92,755.13"/>
    </edge>
    <edge id=":2476266124_17" function="internal">
        <lane id=":2476266124_17_0" index="0" disallow="tram rail_urban rail rail_electric rail_fast ship" speed="3.65" length="1.44" shape="1216.77,758.41 1217.97,757.61"/>
    </edge>
    <edge id=":2476266124_20" function="internal">
        <lane id=":2476266124_20_0" index="0" disallow="tram rail_urban rail rail_electric rail_fast ship" speed="8.54" length="13.39" shape="1218.92,755.13 1219.04,754.94 1222.25,753.26 1226.38,753.39 1231.44,755.31"/>
    </edge>
    <edge id=":2476266124_21" function="internal">
        <lane id=":2476266124_21_0" index="0" disallow="tram rail_urban rail rail_electric rail_fast ship" speed="3.65" length="3.23" shape="1217.97,757.61 1218.86,757.54 1219.45,758.22 1219.73,759.63"/>
    </edge>
    <edge id=":2476266134_0" function="internal">
        <lane id=":2476266134_0_0" index="0" disallow="tram rail_urban rail rail_electric rail_fast ship" speed="5.91" length="9.10" shape="1335.09,511.46 1332.91,509.99 1331.00,509.76 1329.37,510.76 1328.00,513.01"/>
    </edge>
    <edge id=":2476266134_1" function="internal">
        <lane id=":2476266134_1_0" index="0" disallow="tram rail_urban rail rail_electric rail_fast ship" speed="22.22" length="21.80" shape="1335.09,511.46 1331.37,508.41 1326.47,504.79 1321.43,501.37 1317.30,498.92"/>
    </edge>
    <edge id=":2476266134_2" function="internal">
        <lane id=":2476266134_2_0" index="0" disallow="tram rail_urban rail rail_electric rail_fast ship" speed="10.30" length="18.86" shape="1335.09,511.46 1331.08,507.15 1328.75,502.96 1328.10,498.89 1329.12,494.96"/>
    </edge>
    <edge id=":2476266134_3" function="internal">
        <lane id=":2476266134_3_0" index="0" disallow="tram rail_urban rail rail_electric rail_fast ship" speed="3.65" length="4.67" shape="1335.09,511.46 1334.73,510.06 1334.97,509.20 1335.81,508.88 1337.23,509.09"/>
    </edge>
    <edge id=":2476266134_4" function="internal">
        <lane id=":2476266134_4_0" index="0" disallow="tram rail_urban rail rail_electric rail_fast ship" speed="8.49" length="12.55" shape="1334.89,497.72 1333.88,500.85 1333.93,503.79 1335.05,506.54 1337.23,509.09"/>
    </edge>
    <edge id=":2476266134_5" function="internal">
        <lane id=":2476266134_5_0" index="0" disallow="tram rail_urban rail rail_electric rail_fast ship" speed="27.78" length="16.84" shape="1334.89,497.72 1328.00,513.01"/>
        <lane id=":2476266134_5_1" index="1" disallow="tram rail_urban rail rail_electric rail_fast ship" speed="27.78" length="16.84" shape="1332.00,496.34 1325.06,511.75"/>
    </edge>
    <edge id=":2476266134_7" function="internal">
        <lane id=":2476266134_7_0" index="0" disallow="tram rail_urban rail rail_electric rail_fast ship" speed="8.62" length="3.39" shape="1332.00,496.34 1329.99,499.06"/>
    </edge>
    <edge id=":2476266134_8" function="internal">
        <lane id=":2476266134_8_0" index="0" disallow="tram rail_urban rail rail_electric rail_fast ship" speed="3.65" length="1.44" shape="1332.00,496.34 1330.76,497.08"/>
    </edge>
    <edge id=":2476266134_18" function="internal">
        <lane id=":2476266134_18_0" index="0" disallow="tram rail_urban rail rail_electric rail_fast ship" speed="8.62" length="13.64" shape="1329.99,499.06 1329.62,499.56 1326.37,501.06 1322.27,500.85 1317.30,498.92"/>
    </edge>
    <edge id=":2476266134_19" function="internal">
        <lane id=":2476266134_19_0" index="0" disallow="tram rail_urban rail rail_electric rail_fast ship" speed="3.65" length="3.23" shape="1330.76,497.08 1329.87,497.09 1329.32,496.39 1329.12,494.96"/>
    </edge>
    <edge id=":2476266134_9" function="internal">
        <lane id=":2476266134_9_0" index="0" disallow="tram rail_urban rail rail_electric rail_fast ship" speed="6.44" length="9.03" shape="1318.77,496.07 1321.12,496.89 1323.15,496.75 1324.85,495.64 1326.23,493.57"/>
    </edge>
    <edge id=":2476266134_10" function="internal">
        <lane id=":2476266134_10_0" index="0" disallow="tram rail_urban rail rail_electric rail_fast ship" speed="22.22" length="22.62" shape="1318.77,496.07 1323.01,498.61 1328.28,502.19 1333.41,505.96 1337.23,509.09"/>
    </edge>
    <edge id=":2476266134_11" function="internal">
        <lane id=":2476266134_11_0" index="0" disallow="tram rail_urban rail rail_electric rail_fast ship" speed="9.42" length="18.96" shape="1318.77,496.07 1323.16,499.12 1325.67,502.75 1326.30,506.96 1325.06,511.75"/>
    </edge>
    <edge id=":2476266134_12" function="internal">
        <lane id=":2476266134_12_0" index="0" disallow="tram rail_urban rail rail_electric rail_fast ship" speed="3.65" length="4.67" shape="1318.77,496.07 1319.47,497.34 1319.46,498.23 1318.74,498.76 1317.30,498.92"/>
    </edge>
    <edge id=":2476266134_13" function="internal">
        <lane id=":2476266134_13_0" index="0" disallow="tram rail_urban rail rail_electric rail_fast ship" speed="7.51" length="11.68" shape="1319.18,509.23 1320.29,505.72 1320.35,502.83 1319.35,500.56 1317.30,498.92"/>
    </edge>
    <edge id=":2476266134_14" function="internal">
        <lane id=":2476266134_14_0" index="0" disallow="tram rail_urban rail rail_electric rail_fast ship" speed="27.78" length="17.10" shape="1319.18,509.23 1326.23,493.57"/>
        <lane id=":2476266134_14_1" index="1" disallow="tram rail_urban rail rail_electric rail_fast ship" speed="27.78" length="17.10" shape="1322.12,510.49 1329.12,494.96"/>
    </edge>
    <edge id=":2476266134_16" function="internal">
        <lane id=":2476266134_16_0" index="0" disallow="tram rail_urban rail rail_electric rail_fast ship" speed="8.25" length="4.70" shape="1322.12,510.49 1324.67,506.54"/>
    </edge>
    <edge id=":2476266134_17" function="internal">
        <lane id=":2476266134_17_0" index="0" disallow="tram rail_urban rail rail_electric rail_fast ship" speed="3.65" length="1.44" shape="1322.12,510.49 1323.33,509.70"/>
    </edge>
    <edge id=":2476266134_20" function="internal">
        <lane id=":2476266134_20_0" index="0" disallow="tram rail_urban rail rail_electric rail_fast ship" speed="8.25" length="14.24" shape="1324.67,506.54 1324.81,506.33 1328.23,504.71 1332.37,505.63 1337.23,509.09"/>
    </edge>
    <edge id=":2476266134_21" function="internal">
        <lane id=":2476266134_21_0" index="0" disallow="tram rail_urban rail rail_electric rail_fast ship" speed="3.65" length="3.23" shape="1323.33,509.70 1324.22,509.65 1324.80,510.33 1325.06,511.75"/>
    </edge>
    <edge id=":2476266137_0" function="internal">
        <lane id=":2476266137_0_0" index="0" disallow="tram rail_urban rail rail_electric rail_fast ship" speed="27.78" length="14.51" shape="1008.41,1288.29 1003.05,1301.80"/>
        <lane id=":2476266137_0_1" index="1" disallow="tram rail_urban rail rail_electric rail_fast ship" speed="27.78" length="14.51" shape="1005.42,1287.13 1000.08,1300.60"/>
    </edge>
    <edge id=":2476266137_2" function="internal">
        <lane id=":2476266137_2_0" index="0" disallow="tram rail_urban rail rail_electric rail_fast ship" speed="8.64" length="3.79" shape="1005.42,1287.13 1003.40,1290.33"/>
    </edge>
    <edge id=":2476266137_3" function="internal">
        <lane id=":2476266137_3_0" index="0" disallow="tram rail_urban rail rail_electric rail_fast ship" speed="3.65" length="1.44" shape="1005.42,1287.13 1004.24,1287.96"/>
    </edge>
    <edge id=":2476266137_11" function="internal">
        <lane id=":2476266137_11_0" index="0" disallow="tram rail_urban rail rail_electric rail_fast ship" speed="8.64" length="13.18" shape="1003.40,1290.33 1003.30,1290.49 1000.18,1292.24 996.08,1292.35 990.98,1290.85"/>
    </edge>
    <edge id=":2476266137_12" function="internal">
        <lane id=":2476266137_12_0" index="0" disallow="tram rail_urban rail rail_electric rail_fast ship" speed="3.65" length="3.23" shape="1004.24,1287.96 1003.35,1288.04 1002.75,1287.37 1002.44,1285.97"/>
    </edge>
    <edge id=":2476266137_4" function="internal">