<?xml version="1.0" encoding="UTF-8"?>

<!-- generated on 2022-05-06 12:20:44 by Eclipse SUMO netedit Version 1.12.0
<configuration xmlns:xsi="http://www.w3.org/2001/XMLSchema-instance" xsi:noNamespaceSchemaLocation="http://sumo.dlr.de/xsd/netconvertConfiguration.xsd">

    <input>
        <sumo-net-file value="C:\Program%20Files%20(x86)\Eclipse\Sumo\RLRoute\Geojedo\Net\geojedo_simple.net.xml"/>
    </input>

    <output>
        <output-file value="C:\Program%20Files%20(x86)\Eclipse\Sumo\RLRoute\Geojedo\Net\geojedo_simple.net.xml"/>
    </output>

    <processing>
        <geometry.min-radius.fix.railways value="false"/>
        <geometry.max-grade.fix value="false"/>
        <offset.disable-normalization value="true"/>
        <lefthand value="false"/>
    </processing>

    <junctions>
        <no-internal-links value="true"/>
        <no-turnarounds value="true"/>
        <junctions.corner-detail value="5"/>
        <junctions.limit-turn-speed value="5.5"/>
        <rectangular-lane-cut value="false"/>
    </junctions>

    <pedestrian>
        <walkingareas value="false"/>
    </pedestrian>

    <report>
        <aggregate-warnings value="5"/>
    </report>

</configuration>
-->

<net version="1.9" junctionCornerDetail="5" limitTurnSpeed="5.50" xmlns:xsi="http://www.w3.org/2001/XMLSchema-instance" xsi:noNamespaceSchemaLocation="http://sumo.dlr.de/xsd/net_file.xsd">

    <location netOffset="-464583.38,-3859381.48" convBoundary="746.40,333.75,1346.88,1217.69" origBoundary="128.612430,34.876231,128.630970,34.891785" projParameter="+proj=utm +zone=52 +ellps=WGS84 +datum=WGS84 +units=m +no_defs"/>

    <type id="highway.bridleway" priority="1" numLanes="1" speed="2.78" allow="pedestrian" oneway="1" width="2.00"/>
    <type id="highway.bus_guideway" priority="1" numLanes="1" speed="27.78" allow="bus" oneway="1"/>
    <type id="highway.cycleway" priority="1" numLanes="1" speed="8.33" allow="bicycle" oneway="0" width="1.00"/>
    <type id="highway.footway" priority="1" numLanes="1" speed="2.78" allow="pedestrian" oneway="1" width="2.00"/>
    <type id="highway.ford" priority="1" numLanes="1" speed="2.78" allow="army" oneway="0"/>
    <type id="highway.living_street" priority="2" numLanes="1" speed="2.78" disallow="tram rail_urban rail rail_electric rail_fast ship" oneway="0"/>
    <type id="highway.motorway" priority="14" numLanes="2" speed="39.44" allow="private emergency authority army vip passenger hov taxi bus coach delivery truck trailer motorcycle evehicle custom1 custom2" oneway="1"/>
    <type id="highway.motorway_link" priority="9" numLanes="1" speed="22.22" allow="private emergency authority army vip passenger hov taxi bus coach delivery truck trailer motorcycle evehicle custom1 custom2" oneway="1"/>
    <type id="highway.path" priority="1" numLanes="1" speed="2.78" allow="pedestrian bicycle" oneway="0" width="2.00"/>
    <type id="highway.pedestrian" priority="1" numLanes="1" speed="2.78" allow="pedestrian" oneway="1" width="2.00"/>
    <type id="highway.primary" priority="12" numLanes="2" speed="27.78" disallow="tram rail_urban rail rail_electric rail_fast ship" oneway="0"/>
    <type id="highway.primary_link" priority="7" numLanes="1" speed="22.22" disallow="tram rail_urban rail rail_electric rail_fast ship" oneway="0"/>
    <type id="highway.raceway" priority="15" numLanes="2" speed="83.33" allow="vip" oneway="0"/>
    <type id="highway.residential" priority="3" numLanes="1" speed="13.89" disallow="tram rail_urban rail rail_electric rail_fast ship" oneway="0"/>
    <type id="highway.secondary" priority="11" numLanes="1" speed="27.78" disallow="tram rail_urban rail rail_electric rail_fast ship" oneway="0"/>
    <type id="highway.secondary_link" priority="6" numLanes="1" speed="22.22" disallow="tram rail_urban rail rail_electric rail_fast ship" oneway="0"/>
    <type id="highway.service" priority="1" numLanes="1" speed="5.56" allow="pedestrian delivery bicycle" oneway="0"/>
    <type id="highway.stairs" priority="1" numLanes="1" speed="1.39" allow="pedestrian" oneway="1" width="2.00"/>
    <type id="highway.step" priority="1" numLanes="1" speed="1.39" allow="pedestrian" oneway="1" width="2.00"/>
    <type id="highway.steps" priority="1" numLanes="1" speed="1.39" allow="pedestrian" oneway="1" width="2.00"/>
    <type id="highway.tertiary" priority="10" numLanes="1" speed="22.22" disallow="tram rail_urban rail rail_electric rail_fast ship" oneway="0"/>
    <type id="highway.tertiary_link" priority="5" numLanes="1" speed="22.22" disallow="tram rail_urban rail rail_electric rail_fast ship" oneway="0"/>
    <type id="highway.track" priority="1" numLanes="1" speed="5.56" allow="pedestrian motorcycle moped bicycle" oneway="0"/>
    <type id="highway.trunk" priority="13" numLanes="2" speed="27.78" disallow="pedestrian bicycle tram rail_urban rail rail_electric rail_fast ship" oneway="0"/>
    <type id="highway.trunk_link" priority="8" numLanes="1" speed="22.22" disallow="pedestrian bicycle tram rail_urban rail rail_electric rail_fast ship" oneway="0"/>
    <type id="highway.unclassified" priority="4" numLanes="1" speed="13.89" disallow="tram rail_urban rail rail_electric rail_fast ship" oneway="0"/>
    <type id="highway.unsurfaced" priority="1" numLanes="1" speed="8.33" disallow="tram rail_urban rail rail_electric rail_fast ship" oneway="0"/>
    <type id="railway.highspeed" priority="21" numLanes="1" speed="69.44" allow="rail_fast" oneway="1"/>
    <type id="railway.light_rail" priority="19" numLanes="1" speed="27.78" allow="rail_urban" oneway="1"/>
    <type id="railway.preserved" priority="16" numLanes="1" speed="27.78" allow="rail" oneway="1"/>
    <type id="railway.rail" priority="20" numLanes="1" speed="44.44" allow="rail" oneway="1"/>
    <type id="railway.subway" priority="18" numLanes="1" speed="27.78" allow="rail_urban" oneway="1"/>
    <type id="railway.tram" priority="17" numLanes="1" speed="13.89" allow="tram" oneway="1"/>

    <edge id="-240388157" from="2481288039" to="2481288023" priority="3" type="highway.residential" shape="1222.62,931.47 1236.32,893.79 1237.60,890.29 1244.81,872.58 1261.29,832.05 1282.97,780.13">
        <lane id="-240388157_0" index="0" disallow="tram rail_urban rail rail_electric rail_fast ship" speed="13.89" length="162.96" shape="1224.13,922.64 1234.82,893.24 1236.11,889.71 1243.33,871.98 1259.81,831.44 1278.72,786.15"/>
    </edge>
    <edge id="-240388158#0" from="2481288037" to="2481287982" priority="3" type="highway.residential" shape="1240.05,1159.75 1247.14,1147.43 1265.89,1116.57 1270.74,1108.76 1289.40,1078.69 1294.34,1070.72 1328.77,1012.37">
        <lane id="-240388158#0_0" index="0" disallow="tram rail_urban rail rail_electric rail_fast ship" speed="13.89" length="172.03" shape="1240.16,1156.35 1245.76,1146.62 1264.52,1115.74 1269.38,1107.92 1288.04,1077.85 1292.97,1069.89 1325.99,1013.94"/>
    </edge>
    <edge id="-240388159#0" from="2482692059" to="4537298624" priority="3" type="highway.residential" shape="1148.67,1113.57 1134.48,1106.33 1085.44,1084.48">
        <lane id="-240388159#0_0" index="0" disallow="tram rail_urban rail rail_electric rail_fast ship" speed="13.89" length="69.62" shape="1142.62,1112.28 1133.79,1107.77 1094.40,1090.22"/>
    </edge>
    <edge id="-240388159#1" from="2481288037" to="2482692059" priority="3" type="highway.residential" shape="1240.05,1159.75 1218.42,1149.12 1214.36,1147.13 1206.06,1142.89 1192.52,1135.96 1180.45,1129.80 1148.67,1113.57">
        <lane id="-240388159#1_0" index="0" disallow="tram rail_urban rail rail_electric rail_fast ship" speed="13.89" length="102.39" shape="1236.65,1159.86 1217.71,1150.56 1213.64,1148.56 1205.33,1144.31 1191.79,1137.38 1179.72,1131.22 1153.20,1117.68"/>
    </edge>
    <edge id="-240388160" from="2481287979" to="2481288003" priority="3" type="highway.residential" shape="1285.26,976.04 1301.95,928.08 1311.78,901.23 1319.40,880.44 1324.98,865.19 1328.58,855.36 1346.88,805.40">
        <lane id="-240388160_0" index="0" disallow="tram rail_urban rail rail_electric rail_fast ship" speed="13.89" length="181.43" shape="1286.46,967.72 1300.44,927.54 1310.28,900.68 1317.90,879.89 1323.48,864.64 1327.08,854.81 1344.36,807.62"/>
    </edge>
    <edge id="-240388167#0" from="2481289555" to="2476266091" priority="10" type="highway.tertiary" shape="1065.36,737.81 1088.55,765.09 1112.92,792.01 1161.91,848.87 1176.25,860.86">
        <lane id="-240388167#0_0" index="0" disallow="tram rail_urban rail rail_electric rail_fast ship" speed="22.22" length="165.86" shape="1070.16,740.99 1089.75,764.03 1114.12,790.95 1163.04,847.73 1168.29,852.12"/>
    </edge>
    <edge id="-240388167#1" from="3276832423" to="2481289555" priority="10" type="highway.tertiary" shape="999.56,664.92 1018.41,684.27 1029.93,696.82 1045.80,714.41 1065.36,737.81">
        <lane id="-240388167#1_0" index="0" disallow="tram rail_urban rail rail_electric rail_fast ship" speed="22.22" length="98.24" shape="1005.74,668.98 1019.57,683.17 1031.11,695.74 1047.01,713.36 1063.30,732.85"/>
    </edge>
    <edge id="-240388167#2" from="4540929540" to="3276832423" priority="10" type="highway.tertiary" shape="953.27,612.19 962.07,622.49 977.05,639.73 991.78,656.41 999.56,664.92">
        <lane id="-240388167#2_0" index="0" disallow="tram rail_urban rail rail_electric rail_fast ship" speed="22.22" length="70.17" shape="959.07,616.51 963.28,621.45 978.25,638.68 992.97,655.34 995.83,658.47"/>
    </edge>
    <edge id="-240388167#3" from="4508105356" to="4540929540" priority="10" type="highway.tertiary" shape="873.52,526.98 886.70,535.53 904.33,556.41 906.69,559.29 916.91,570.63 920.71,574.96 929.77,585.53 943.01,600.44 953.27,612.19">
        <lane id="-240388167#3_0" index="0" disallow="tram rail_urban rail rail_electric rail_fast ship" speed="22.22" length="117.25" shape="876.86,527.24 887.77,534.32 905.55,555.38 907.90,558.25 918.10,569.56 921.92,573.91 930.98,584.48 944.21,599.38 949.66,605.62"/>
    </edge>
    <edge id="-240392105#0" from="3276832418" to="2481287996" priority="3" type="highway.residential">
        <lane id="-240392105#0_0" index="0" disallow="tram rail_urban rail rail_electric rail_fast ship" speed="13.89" length="59.60" shape="1119.61,861.89 1159.22,876.44"/>
    </edge>
    <edge id="-240392105#1" from="3276832403" to="3276832418" priority="3" type="highway.residential" shape="1046.53,834.46 1072.81,845.03 1112.61,861.02">
        <lane id="-240392105#1_0" index="0" disallow="tram rail_urban rail rail_electric rail_fast ship" speed="13.89" length="71.22" shape="1051.75,834.83 1073.41,843.55 1106.29,856.76"/>
    </edge>
    <edge id="-243399011#0" from="2481287996" to="2476266091" priority="12" type="highway.primary">
        <lane id="-243399011#0_0" index="0" disallow="tram rail_urban rail rail_electric rail_fast ship" speed="27.78" length="22.09" shape="1166.56,873.17 1169.97,863.99"/>
        <lane id="-243399011#0_1" index="1" disallow="tram rail_urban rail rail_electric rail_fast ship" speed="27.78" length="22.09" shape="1169.56,874.28 1172.97,865.11"/>
        <param key="ref" value="5;1018"/>
    </edge>
    <edge id="-243399011#1" from="4544139069" to="2481287996" priority="12" type="highway.primary" shape="1126.70,982.83 1139.41,952.04 1168.56,881.57">
        <lane id="-243399011#1_0" index="0" disallow="tram rail_urban rail rail_electric rail_fast ship" speed="27.78" length="109.57" shape="1124.92,974.57 1134.97,950.21 1160.39,888.76"/>
        <lane id="-243399011#1_1" index="1" disallow="tram rail_urban rail rail_electric rail_fast ship" speed="27.78" length="109.57" shape="1127.87,975.79 1137.93,951.43 1163.35,889.99"/>
        <param key="ref" value="5;1018"/>
    </edge>
    <edge id="-243399011#3" from="4537298624" to="4544139069" priority="12" type="highway.primary" shape="1085.44,1084.48 1087.61,1079.18 1100.10,1048.37 1103.01,1041.18 1126.70,982.83">
        <lane id="-243399011#3_0" index="0" disallow="tram rail_urban rail rail_electric rail_fast ship" speed="27.78" length="109.70" shape="1083.65,1076.18 1095.65,1046.57 1098.56,1039.37 1119.44,987.96"/>
        <lane id="-243399011#3_1" index="1" disallow="tram rail_urban rail rail_electric rail_fast ship" speed="27.78" length="109.70" shape="1086.61,1077.39 1098.62,1047.77 1101.53,1040.58 1122.40,989.17"/>
        <param key="ref" value="5;1018"/>
    </edge>
    <edge id="-243399011#4" from="4014031993" to="4537298624" priority="12" type="highway.primary" shape="1044.38,1185.36 1046.38,1180.20 1051.05,1168.10 1052.09,1165.38 1055.52,1156.50 1065.81,1132.09 1076.33,1107.14 1085.44,1084.48">
        <lane id="-243399011#4_0" index="0" disallow="tram rail_urban rail rail_electric rail_fast ship" speed="27.78" length="108.93" shape="1042.86,1175.99 1046.57,1166.37 1047.61,1163.65 1051.07,1154.70 1061.39,1130.23 1071.89,1105.31 1078.21,1089.59"/>
        <lane id="-243399011#4_1" index="1" disallow="tram rail_urban rail rail_electric rail_fast ship" speed="27.78" length="108.93" shape="1045.84,1177.15 1049.56,1167.52 1050.60,1164.80 1054.04,1155.90 1064.34,1131.47 1074.85,1106.53 1081.18,1090.78"/>
        <param key="ref" value="5;1018"/>
    </edge>
    <edge id="-243443852#0" from="2482692155" to="4014031993" priority="10" type="highway.tertiary" shape="986.52,1155.29 1026.82,1175.43 1027.73,1175.88 1028.96,1176.59 1044.38,1185.36">
        <lane id="-243443852#0_0" index="0" disallow="tram rail_urban rail rail_electric rail_fast ship" speed="22.22" length="65.23" shape="987.34,1153.91 1027.54,1174.00 1028.49,1174.47 1029.76,1175.20 1035.66,1178.56"/>
    </edge>
    <edge id="-243443852#1" from="4537298623" to="2482692155" priority="10" type="highway.tertiary" shape="904.48,1112.74 969.89,1146.21 986.52,1155.29">
        <lane id="-243443852#1_0" index="0" disallow="tram rail_urban rail rail_electric rail_fast ship" speed="22.22" length="92.42" shape="910.16,1113.85 970.64,1144.80 987.18,1153.83"/>
    </edge>
    <edge id="-243443852#2" from="3276832422" to="4537298623" priority="10" type="highway.tertiary">
        <lane id="-243443852#2_0" index="0" disallow="tram rail_urban rail rail_electric rail_fast ship" speed="22.22" length="94.90" shape="825.94,1070.20 900.23,1108.73"/>
    </edge>
    <edge id="-243443852#3" from="2481071757" to="3276832422" priority="10" type="highway.tertiary">
        <lane id="-243443852#3_0" index="0" disallow="tram rail_urban rail rail_electric rail_fast ship" speed="22.22" length="21.92" shape="801.65,1057.59 816.04,1065.06"/>
    </edge>
    <edge id="-243443852#4" from="954152962" to="2481071757" priority="10" type="highway.tertiary" shape="746.40,1042.28 759.43,1041.61 770.94,1043.76 800.78,1058.94">
        <lane id="-243443852#4_0" index="0" disallow="tram rail_urban rail rail_electric rail_fast ship" speed="22.22" length="54.46" shape="754.48,1040.26 759.54,1040.00 771.46,1042.23 801.37,1057.45"/>
    </edge>
    <edge id="-243463807#2" from="4542657187" to="2476266134" priority="12" type="highway.primary">
        <lane id="-243463807#2_0" index="0" disallow="tram rail_urban rail rail_electric rail_fast ship" speed="27.78" length="53.72" shape="1304.73,542.92 1320.40,506.37"/>
        <lane id="-243463807#2_1" index="1" disallow="tram rail_urban rail rail_electric rail_fast ship" speed="27.78" length="53.72" shape="1307.67,544.18 1323.34,507.63"/>
        <param key="ref" value="5;1018"/>
    </edge>
    <edge id="-243463807#3" from="3276832433" to="4542657187" priority="12" type="highway.primary" shape="1272.44,631.19 1282.75,607.04 1292.33,584.41 1306.19,551.69">
        <lane id="-243463807#3_0" index="0" disallow="tram rail_urban rail rail_electric rail_fast ship" speed="27.78" length="86.37" shape="1271.00,622.34 1278.33,605.16 1287.91,582.54 1299.08,556.17"/>
        <lane id="-243463807#3_1" index="1" disallow="tram rail_urban rail rail_electric rail_fast ship" speed="27.78" length="86.37" shape="1273.94,623.59 1281.28,606.41 1290.86,583.79 1302.03,557.42"/>
        <param key="ref" value="5;1018"/>
    </edge>
    <edge id="-243463807#4" from="2476266124" to="3276832433" priority="12" type="highway.primary" shape="1221.20,751.88 1260.24,659.91 1272.44,631.19">
        <lane id="-243463807#4_0" index="0" disallow="tram rail_urban rail rail_electric rail_fast ship" speed="27.78" length="131.12" shape="1219.42,743.79 1255.82,658.03 1265.35,635.59"/>
        <lane id="-243463807#4_1" index="1" disallow="tram rail_urban rail rail_electric rail_fast ship" speed="27.78" length="131.12" shape="1222.37,745.04 1258.77,659.28 1268.30,636.84"/>
        <param key="ref" value="5;1018"/>
    </edge>
    <edge id="-243463811" from="2476266091" to="2476266124" priority="12" type="highway.primary">
        <lane id="-243463811_0" index="0" disallow="tram rail_urban rail rail_electric rail_fast ship" speed="27.78" length="117.89" shape="1175.39,850.37 1213.81,757.20"/>
        <lane id="-243463811_1" index="1" disallow="tram rail_urban rail rail_electric rail_fast ship" speed="27.78" length="117.89" shape="1178.34,851.59 1216.77,758.42"/>
        <param key="ref" value="5;1018"/>
    </edge>
    <edge id="-320980921#0" from="3276832406" to="3276832401" priority="3" type="highway.residential" shape="872.50,969.66 904.83,986.65 918.45,993.79 954.92,1012.96">
        <lane id="-320980921#0_0" index="0" disallow="tram rail_urban rail rail_electric rail_fast ship" speed="13.89" length="93.10" shape="878.20,970.85 905.57,985.23 919.19,992.37 952.90,1010.09"/>
    </edge>
    <edge id="-320980921#1" from="3276832407" to="3276832406" priority="3" type="highway.residential" shape="805.66,934.85 825.70,945.29 838.92,952.17 854.27,960.17 872.50,969.66">
        <lane id="-320980921#1_0" index="0" disallow="tram rail_urban rail rail_electric rail_fast ship" speed="13.89" length="75.36" shape="811.30,935.98 826.44,943.87 839.66,950.75 855.01,958.75 868.26,965.65"/>
    </edge>
    <edge id="-320980926#1" from="3276832418" to="3276832414" priority="3" type="highway.residential">
        <lane id="-320980926#1_0" index="0" disallow="tram rail_urban rail rail_electric rail_fast ship" speed="13.89" length="98.79" shape="1110.74,868.41 1071.65,947.46"/>
    </edge>
    <edge id="-320980931" from="4540929539" to="3276832423" priority="3" type="highway.residential" shape="1081.50,586.24 1049.96,616.44 999.56,664.92">
        <lane id="-320980931_0" index="0" disallow="tram rail_urban rail rail_electric rail_fast ship" speed="13.89" length="113.60" shape="1080.38,589.53 1051.07,617.59 1005.92,661.02"/>
    </edge>
    <edge id="-320980933#2" from="3276832433" to="955680728" priority="3" type="highway.residential" shape="1272.44,631.19 1222.38,606.29 1220.18,605.25 1193.25,592.52">
        <lane id="-320980933#2_0" index="0" disallow="tram rail_urban rail rail_electric rail_fast ship" speed="13.89" length="88.13" shape="1262.24,627.90 1221.67,607.72 1219.50,606.70 1195.41,595.31"/>
    </edge>
    <edge id="-320980935#0" from="4542657186" to="955680728" priority="3" type="highway.residential">
        <lane id="-320980935#0_0" index="0" disallow="tram rail_urban rail rail_electric rail_fast ship" speed="13.89" length="85.82" shape="1226.95,521.57 1196.00,590.31"/>
    </edge>
    <edge id="-320980935#1" from="955680729" to="4542657186" priority="3" type="highway.residential">
        <lane id="-320980935#1_0" index="0" disallow="tram rail_urban rail rail_electric rail_fast ship" speed="13.89" length="56.13" shape="1249.95,470.48 1232.86,508.44"/>
    </edge>
    <edge id="-320980936#0" from="955680729" to="2476266134" priority="10" type="highway.tertiary">
        <lane id="-320980936#0_0" index="0" disallow="tram rail_urban rail rail_electric rail_fast ship" speed="22.22" length="85.39" shape="1258.81,465.06 1319.30,496.35"/>
    </edge>
    <edge id="-320980936#1" from="3276832438" to="955680729" priority="10" type="highway.tertiary" shape="1216.27,444.26 1219.35,445.91 1243.65,458.88 1251.52,463.09">
        <lane id="-320980936#1_0" index="0" disallow="tram rail_urban rail rail_electric rail_fast ship" speed="22.22" length="39.96" shape="1217.16,442.92 1220.10,444.50 1244.40,457.47 1246.11,458.38"/>
    </edge>
    <edge id="-320980936#2" from="955680730" to="3276832438" priority="10" type="highway.tertiary">
        <lane id="-320980936#2_0" index="0" disallow="tram rail_urban rail rail_electric rail_fast ship" speed="22.22" length="63.72" shape="1160.81,412.83 1216.89,442.78"/>
    </edge>
    <edge id="-320980936#3" from="3276832437" to="955680730" priority="10" type="highway.tertiary" shape="979.12,333.75 1061.54,370.66 1130.22,400.42 1160.06,414.24">
        <lane id="-320980936#3_0" index="0" disallow="tram rail_urban rail rail_electric rail_fast ship" speed="22.22" length="198.04" shape="982.41,333.47 1062.19,369.20 1130.87,398.96 1160.73,412.79"/>
    </edge>
    <edge id="-457863184#0" from="3276832419" to="3276832403" priority="3" type="highway.residential" shape="994.23,805.96 1009.21,813.92 1032.84,826.99 1046.53,834.46">
        <lane id="-457863184#0_0" index="0" disallow="tram rail_urban rail rail_electric rail_fast ship" speed="13.89" length="59.56" shape="1000.93,807.71 1009.97,812.51 1033.61,825.59 1042.76,830.58"/>
    </edge>
    <edge id="-457863184#1" from="3276832424" to="3276832419" priority="3" type="highway.residential" shape="888.58,773.08 903.93,768.07 923.14,770.73 930.40,774.33 945.72,781.92 963.94,790.95 969.39,793.64 971.85,794.86 994.23,805.96">
        <lane id="-457863184#1_0" index="0" disallow="tram rail_urban rail rail_electric rail_fast ship" speed="13.89" length="114.88" shape="899.74,767.75 903.78,766.43 923.62,769.18 931.11,772.90 946.43,780.49 964.65,789.52 970.10,792.21 972.56,793.43 988.71,801.43"/>
    </edge>
    <edge id="-458050462#0" from="4540929538" to="4540929535" priority="3" type="highway.residential" shape="1035.60,534.79 1023.25,521.39 1014.02,510.74 998.81,493.93 993.40,487.95 975.26,467.92 973.69,466.25 930.86,420.58">
        <lane id="-458050462#0_0" index="0" disallow="tram rail_urban rail rail_electric rail_fast ship" speed="13.89" length="154.98" shape="1029.57,530.60 1022.06,522.46 1012.82,511.80 997.62,495.00 992.21,489.02 974.08,469.00 972.52,467.34 935.47,427.83"/>
    </edge>
    <edge id="-458050462#1" from="4540929539" to="4540929538" priority="3" type="highway.residential" shape="1081.50,586.24 1052.23,553.43 1036.84,536.18 1035.60,534.79">
        <lane id="-458050462#1_0" index="0" disallow="tram rail_urban rail rail_electric rail_fast ship" speed="13.89" length="68.95" shape="1078.25,585.00 1051.04,554.50 1039.26,541.29"/>
    </edge>
    <edge id="-458050463" from="4540929538" to="4540929540" priority="3" type="highway.residential">
        <lane id="-458050463_0" index="0" disallow="tram rail_urban rail rail_electric rail_fast ship" speed="13.89" length="113.00" shape="1031.39,540.95 959.70,608.34"/>
    </edge>
    <edge id="-458226302" from="4542657187" to="4542657186" priority="3" type="highway.residential">
        <lane id="-458226302_0" index="0" disallow="tram rail_urban rail rail_electric rail_fast ship" speed="13.89" length="86.25" shape="1295.99,548.56 1234.35,518.87"/>
    </edge>
    <edge id="-458243011#1" from="4014031993" to="2482692078" priority="10" type="highway.tertiary" shape="1044.38,1185.36 1059.34,1193.04 1071.74,1199.43 1107.25,1217.69">
        <lane id="-458243011#1_0" index="0" disallow="tram rail_urban rail rail_electric rail_fast ship" speed="22.22" length="70.70" shape="1054.10,1188.55 1060.07,1191.62 1072.47,1198.01 1104.94,1214.70"/>
    </edge>
    <edge id="-458401302" from="4544139069" to="4544139068" priority="3" type="highway.residential">
        <lane id="-458401302_0" index="0" disallow="tram rail_urban rail rail_electric rail_fast ship" speed="13.89" length="67.90" shape="1136.96,985.78 1186.11,1008.35"/>
    </edge>
    <edge id="-458441685#2" from="2481287979" to="2481287982" priority="3" type="highway.residential" shape="1285.26,976.04 1313.74,1000.24 1328.77,1012.37">
        <lane id="-458441685#2_0" index="0" disallow="tram rail_urban rail rail_electric rail_fast ship" speed="13.89" length="56.69" shape="1291.01,978.83 1314.76,999.01 1327.62,1009.39"/>
    </edge>
    <edge id="-458441685#3" from="2481288039" to="2481287979" priority="3" type="highway.residential" shape="1222.62,931.47 1239.68,943.64 1261.99,959.55 1285.26,976.04">
        <lane id="-458441685#3_0" index="0" disallow="tram rail_urban rail rail_electric rail_fast ship" speed="13.89" length="76.88" shape="1228.79,933.90 1240.61,942.34 1262.92,958.25 1279.45,969.96"/>
    </edge>
    <edge id="-458441685#4" from="2481287996" to="2481288039" priority="3" type="highway.residential">
        <lane id="-458441685#4_0" index="0" disallow="tram rail_urban rail rail_electric rail_fast ship" speed="13.89" length="73.57" shape="1178.46,888.53 1217.23,924.32"/>
    </edge>
    <edge id="-478427207#2" from="2481288023" to="2481288003" priority="10" type="highway.tertiary" shape="1282.97,780.13 1286.22,781.48 1307.70,789.04 1323.48,794.59 1346.88,805.40">
        <lane id="-478427207#2_0" index="0" disallow="tram rail_urban rail rail_electric rail_fast ship" speed="22.22" length="68.79" shape="1290.30,781.22 1308.23,787.53 1324.08,793.11 1344.87,802.71"/>
    </edge>
    <edge id="-478427207#3" from="2476266124" to="2481288023" priority="10" type="highway.tertiary" shape="1221.20,751.88 1247.43,765.28 1261.43,771.12 1282.97,780.13">
        <lane id="-478427207#3_0" index="0" disallow="tram rail_urban rail rail_electric rail_fast ship" speed="22.22" length="67.97" shape="1231.44,755.31 1248.10,763.83 1262.05,769.64 1276.95,775.88"/>
    </edge>
    <edge id="-81824402#6" from="4540929535" to="4508105356" priority="10" type="highway.tertiary" shape="930.86,420.58 905.22,468.08 873.52,526.98">
        <lane id="-81824402#6_0" index="0" disallow="tram rail_urban rail rail_electric rail_fast ship" speed="22.22" length="120.87" shape="928.26,428.77 906.63,468.84 876.33,525.14"/>
    </edge>
    <edge id="-81824402#7" from="2481287988" to="4540929535" priority="10" type="highway.tertiary" shape="959.54,367.72 947.20,390.44 944.29,395.80 933.89,414.95 930.86,420.58">
        <lane id="-81824402#7_0" index="0" disallow="tram rail_urban rail rail_electric rail_fast ship" speed="22.22" length="60.14" shape="960.88,368.60 948.61,391.20 945.70,396.56 935.26,415.79"/>
    </edge>
    <edge id="-81824402#8" from="3276832437" to="2481287988" priority="10" type="highway.tertiary">
        <lane id="-81824402#8_0" index="0" disallow="tram rail_urban rail rail_electric rail_fast ship" speed="22.22" length="39.21" shape="979.06,337.05 960.99,368.40"/>
    </edge>
    <edge id="240388157" from="2481288023" to="2481288039" priority="3" type="highway.residential" shape="1282.97,780.13 1261.29,832.05 1244.81,872.58 1237.60,890.29 1236.32,893.79 1222.62,931.47">
        <lane id="240388157_0" index="0" disallow="tram rail_urban rail rail_electric rail_fast ship" speed="13.89" length="162.96" shape="1281.67,787.39 1262.77,832.66 1246.29,873.18 1239.09,890.87 1237.82,894.34 1227.13,923.74"/>
    </edge>
    <edge id="240388158#0" from="2481287982" to="2481288037" priority="3" type="highway.residential" shape="1328.77,1012.37 1294.34,1070.72 1289.40,1078.69 1270.74,1108.76 1265.89,1116.57 1247.14,1147.43 1240.05,1159.75">
        <lane id="240388158#0_0" index="0" disallow="tram rail_urban rail rail_electric rail_fast ship" speed="13.89" length="172.03" shape="1328.74,1015.56 1295.71,1071.55 1290.76,1079.53 1272.10,1109.60 1267.25,1117.41 1248.52,1148.24 1242.93,1157.95"/>
    </edge>
    <edge id="240388159#0" from="4537298624" to="2482692059" priority="3" type="highway.residential" shape="1085.44,1084.48 1134.48,1106.33 1148.67,1113.57">
        <lane id="240388159#0_0" index="0" disallow="tram rail_urban rail rail_electric rail_fast ship" speed="13.89" length="69.62" shape="1095.70,1087.30 1135.17,1104.89 1144.07,1109.43"/>
    </edge>
    <edge id="240388159#1" from="2482692059" to="2481288037" priority="3" type="highway.residential" shape="1148.67,1113.57 1180.45,1129.80 1192.52,1135.96 1206.06,1142.89 1214.36,1147.13 1218.42,1149.12 1240.05,1159.75">
        <lane id="240388159#1_0" index="0" disallow="tram rail_urban rail rail_electric rail_fast ship" speed="13.89" length="102.39" shape="1154.66,1114.83 1181.18,1128.38 1193.25,1134.54 1206.79,1141.47 1215.08,1145.70 1219.13,1147.68 1238.07,1156.99"/>
    </edge>
    <edge id="240388160" from="2481288003" to="2481287979" priority="3" type="highway.residential" shape="1346.88,805.40 1328.58,855.36 1324.98,865.19 1319.40,880.44 1311.78,901.23 1301.95,928.08 1285.26,976.04">
        <lane id="240388160_0" index="0" disallow="tram rail_urban rail rail_electric rail_fast ship" speed="13.89" length="181.43" shape="1347.37,808.72 1330.08,855.91 1326.48,865.74 1320.90,880.99 1313.28,901.78 1303.46,928.62 1289.48,968.77"/>
    </edge>
    <edge id="240388167#0" from="2476266091" to="2481289555" priority="10" type="highway.tertiary" shape="1176.25,860.86 1161.91,848.87 1112.92,792.01 1088.55,765.09 1065.36,737.81">
        <lane id="240388167#0_0" index="0" disallow="tram rail_urban rail rail_electric rail_fast ship" speed="22.22" length="165.86" shape="1166.23,854.57 1160.78,850.01 1111.72,793.07 1087.35,766.15 1067.72,743.06"/>
    </edge>
    <edge id="240388167#1" from="2481289555" to="3276832423" priority="10" type="highway.tertiary" shape="1065.36,737.81 1045.80,714.41 1029.93,696.82 1018.41,684.27 999.56,664.92">
        <lane id="240388167#1_0" index="0" disallow="tram rail_urban rail rail_electric rail_fast ship" speed="22.22" length="98.24" shape="1060.85,734.90 1044.59,715.46 1028.75,697.90 1017.25,685.37 1003.45,671.21"/>
    </edge>
    <edge id="240388167#2" from="3276832423" to="4540929540" priority="10" type="highway.tertiary" shape="999.56,664.92 991.78,656.41 977.05,639.73 962.07,622.49 953.27,612.19">