<?xml version="1.0" encoding="UTF-8"?>

<!-- generated on 2022-02-23 16:09:40 by Eclipse SUMO netedit Version 1.12.0
<configuration xmlns:xsi="http://www.w3.org/2001/XMLSchema-instance" xsi:noNamespaceSchemaLocation="http://sumo.dlr.de/xsd/netconvertConfiguration.xsd">

    <input>
        <sumo-net-file value="C:\Program%20Files%20(x86)\Eclipse\Sumo\RLRoute\Geojedo\export.net.xml"/>
    </input>

    <output>
        <output-file value="C:\Program%20Files%20(x86)\Eclipse\Sumo\RLRoute\Geojedo\geojedo.net.xml"/>
    </output>

    <processing>
        <geometry.min-radius.fix.railways value="false"/>
        <geometry.max-grade.fix value="false"/>
        <offset.disable-normalization value="true"/>
        <lefthand value="false"/>
    </processing>

    <junctions>
        <no-internal-links value="true"/>
        <no-turnarounds value="true"/>
        <junctions.corner-detail value="5"/>
        <junctions.limit-turn-speed value="5.5"/>
        <rectangular-lane-cut value="false"/>
    </junctions>

    <pedestrian>
        <walkingareas value="false"/>
    </pedestrian>

    <report>
        <aggregate-warnings value="5"/>
    </report>

</configuration>
-->

<net version="1.9" junctionCornerDetail="5" limitTurnSpeed="5.50" xmlns:xsi="http://www.w3.org/2001/XMLSchema-instance" xsi:noNamespaceSchemaLocation="http://sumo.dlr.de/xsd/net_file.xsd">

    <location netOffset="-464583.38,-3859381.48" convBoundary="0.00,0.00,1692.82,1725.50" origBoundary="128.612430,34.876231,128.630970,34.891785" projParameter="+proj=utm +zone=52 +ellps=WGS84 +datum=WGS84 +units=m +no_defs"/>

    <type id="highway.bridleway" priority="1" numLanes="1" speed="2.78" allow="pedestrian" oneway="1" width="2.00"/>
    <type id="highway.bus_guideway" priority="1" numLanes="1" speed="27.78" allow="bus" oneway="1"/>
    <type id="highway.cycleway" priority="1" numLanes="1" speed="8.33" allow="bicycle" oneway="0" width="1.00"/>
    <type id="highway.footway" priority="1" numLanes="1" speed="2.78" allow="pedestrian" oneway="1" width="2.00"/>
    <type id="highway.ford" priority="1" numLanes="1" speed="2.78" allow="army" oneway="0"/>
    <type id="highway.living_street" priority="2" numLanes="1" speed="2.78" disallow="tram rail_urban rail rail_electric rail_fast ship" oneway="0"/>
    <type id="highway.motorway" priority="14" numLanes="2" speed="39.44" allow="private emergency authority army vip passenger hov taxi bus coach delivery truck trailer motorcycle evehicle custom1 custom2" oneway="1"/>
    <type id="highway.motorway_link" priority="9" numLanes="1" speed="22.22" allow="private emergency authority army vip passenger hov taxi bus coach delivery truck trailer motorcycle evehicle custom1 custom2" oneway="1"/>
    <type id="highway.path" priority="1" numLanes="1" speed="2.78" allow="pedestrian bicycle" oneway="0" width="2.00"/>
    <type id="highway.pedestrian" priority="1" numLanes="1" speed="2.78" allow="pedestrian" oneway="1" width="2.00"/>
    <type id="highway.primary" priority="12" numLanes="2" speed="27.78" disallow="tram rail_urban rail rail_electric rail_fast ship" oneway="0"/>
    <type id="highway.primary_link" priority="7" numLanes="1" speed="22.22" disallow="tram rail_urban rail rail_electric rail_fast ship" oneway="0"/>
    <type id="highway.raceway" priority="15" numLanes="2" speed="83.33" allow="vip" oneway="0"/>
    <type id="highway.residential" priority="3" numLanes="1" speed="13.89" disallow="tram rail_urban rail rail_electric rail_fast ship" oneway="0"/>
    <type id="highway.secondary" priority="11" numLanes="1" speed="27.78" disallow="tram rail_urban rail rail_electric rail_fast ship" oneway="0"/>
    <type id="highway.secondary_link" priority="6" numLanes="1" speed="22.22" disallow="tram rail_urban rail rail_electric rail_fast ship" oneway="0"/>
    <type id="highway.service" priority="1" numLanes="1" speed="5.56" allow="pedestrian delivery bicycle" oneway="0"/>
    <type id="highway.stairs" priority="1" numLanes="1" speed="1.39" allow="pedestrian" oneway="1" width="2.00"/>
    <type id="highway.step" priority="1" numLanes="1" speed="1.39" allow="pedestrian" oneway="1" width="2.00"/>
    <type id="highway.steps" priority="1" numLanes="1" speed="1.39" allow="pedestrian" oneway="1" width="2.00"/>
    <type id="highway.tertiary" priority="10" numLanes="1" speed="22.22" disallow="tram rail_urban rail rail_electric rail_fast ship" oneway="0"/>
    <type id="highway.tertiary_link" priority="5" numLanes="1" speed="22.22" disallow="tram rail_urban rail rail_electric rail_fast ship" oneway="0"/>
    <type id="highway.track" priority="1" numLanes="1" speed="5.56" allow="pedestrian motorcycle moped bicycle" oneway="0"/>
    <type id="highway.trunk" priority="13" numLanes="2" speed="27.78" disallow="pedestrian bicycle tram rail_urban rail rail_electric rail_fast ship" oneway="0"/>
    <type id="highway.trunk_link" priority="8" numLanes="1" speed="22.22" disallow="pedestrian bicycle tram rail_urban rail rail_electric rail_fast ship" oneway="0"/>
    <type id="highway.unclassified" priority="4" numLanes="1" speed="13.89" disallow="tram rail_urban rail rail_electric rail_fast ship" oneway="0"/>
    <type id="highway.unsurfaced" priority="1" numLanes="1" speed="8.33" disallow="tram rail_urban rail rail_electric rail_fast ship" oneway="0"/>
    <type id="railway.highspeed" priority="21" numLanes="1" speed="69.44" allow="rail_fast" oneway="1"/>
    <type id="railway.light_rail" priority="19" numLanes="1" speed="27.78" allow="rail_urban" oneway="1"/>
    <type id="railway.preserved" priority="16" numLanes="1" speed="27.78" allow="rail" oneway="1"/>
    <type id="railway.rail" priority="20" numLanes="1" speed="44.44" allow="rail" oneway="1"/>
    <type id="railway.subway" priority="18" numLanes="1" speed="27.78" allow="rail_urban" oneway="1"/>
    <type id="railway.tram" priority="17" numLanes="1" speed="13.89" allow="tram" oneway="1"/>

    <edge id="-239842076#0" from="2481071784" to="2481071760" priority="3" type="highway.residential" shape="690.85,1146.20 683.60,1135.12 656.74,1080.28">
        <lane id="-239842076#0_0" index="0" disallow="tram rail_urban rail rail_electric rail_fast ship" speed="13.89" length="74.31" shape="684.37,1139.22 682.21,1135.91 658.51,1087.52"/>
    </edge>
    <edge id="-239842076#1" from="2481071750" to="2481071784" priority="3" type="highway.residential">
        <lane id="-239842076#1_0" index="0" disallow="tram rail_urban rail rail_electric rail_fast ship" speed="13.89" length="8.08" shape="694.80,1151.00 694.64,1150.89"/>
    </edge>
    <edge id="-239842076#2" from="4505670588" to="2481071750" priority="3" type="highway.residential" shape="818.51,1212.46 810.56,1209.35 781.10,1194.82 768.05,1188.31 743.09,1175.86 703.00,1154.18 697.42,1150.91">
        <lane id="-239842076#2_0" index="0" disallow="tram rail_urban rail rail_electric rail_fast ship" speed="13.89" length="135.90" shape="808.63,1210.18 780.39,1196.25 767.34,1189.74 742.35,1177.28 705.43,1157.31"/>
    </edge>
    <edge id="-239842076#3" from="2476266144" to="4505670588" priority="3" type="highway.residential">
        <lane id="-239842076#3_0" index="0" disallow="tram rail_urban rail rail_electric rail_fast ship" speed="13.89" length="4.82" shape="818.30,1214.10 818.12,1214.02"/>
    </edge>
    <edge id="-239842076#4" from="2476266113" to="2476266144" priority="3" type="highway.residential" shape="844.98,1224.82 830.72,1217.52 823.00,1214.22">
        <lane id="-239842076#4_0" index="0" disallow="tram rail_urban rail rail_electric rail_fast ship" speed="13.89" length="24.41" shape="837.87,1222.98 832.15,1220.05"/>
    </edge>
    <edge id="-239842076#5" from="2500253545" to="2476266113" priority="3" type="highway.residential" shape="897.44,1250.13 849.66,1229.21 844.98,1224.82">
        <lane id="-239842076#5_0" index="0" disallow="tram rail_urban rail rail_electric rail_fast ship" speed="13.89" length="58.49" shape="891.72,1249.37 850.33,1231.25"/>
    </edge>
    <edge id="-239842076#6" from="2500253525" to="2500253545" priority="3" type="highway.residential" shape="946.02,1270.49 932.53,1265.02 897.44,1250.13">
        <lane id="-239842076#6_0" index="0" disallow="tram rail_urban rail rail_electric rail_fast ship" speed="13.89" length="52.68" shape="940.24,1269.87 931.92,1266.50 901.80,1253.72"/>
    </edge>
    <edge id="-239842076#7" from="2476266137" to="2500253525" priority="3" type="highway.residential">
        <lane id="-239842076#7_0" index="0" disallow="tram rail_urban rail rail_electric rail_fast ship" speed="13.89" length="59.80" shape="990.99,1290.85 950.60,1274.12"/>
    </edge>
    <edge id="-239842081#0" from="2482385250" to="4701359683" priority="10" type="highway.tertiary">
        <lane id="-239842081#0_0" index="0" disallow="tram rail_urban rail rail_electric rail_fast ship" speed="22.22" length="9.28" shape="1532.54,653.46 1532.72,653.55"/>
    </edge>
    <edge id="-239842081#1" from="2476266077" to="2482385250" priority="10" type="highway.tertiary" shape="1433.35,579.11 1468.63,605.19 1493.01,625.25 1501.81,632.51 1519.30,646.90 1527.78,652.75">
        <lane id="-239842081#1_0" index="0" disallow="tram rail_urban rail rail_electric rail_fast ship" speed="22.22" length="119.80" shape="1460.25,597.01 1469.61,603.93 1494.03,624.01 1502.83,631.27 1520.26,645.62 1523.96,648.17"/>
    </edge>
    <edge id="-239842081#2" from="2476266134" to="2476266077" priority="10" type="highway.tertiary" shape="1327.36,502.32 1337.67,511.64 1395.35,554.37 1403.06,559.39 1433.35,579.11">
        <lane id="-239842081#2_0" index="0" disallow="tram rail_urban rail rail_electric rail_fast ship" speed="22.22" length="131.03" shape="1337.23,509.09 1338.69,510.40 1396.26,553.06 1403.93,558.05 1430.65,575.44"/>
    </edge>
    <edge id="-240363126#0" from="4505840218" to="2481071770" priority="3" type="highway.residential">
        <lane id="-240363126#0_0" index="0" disallow="tram rail_urban rail rail_electric rail_fast ship" speed="13.89" length="47.07" shape="785.89,1088.88 766.50,1123.58"/>
    </edge>
    <edge id="-240363126#1" from="2481071757" to="4505840218" priority="3" type="highway.residential">
        <lane id="-240363126#1_0" index="0" disallow="tram rail_urban rail rail_electric rail_fast ship" speed="13.89" length="26.08" shape="798.60,1066.12 792.91,1076.30"/>
    </edge>
    <edge id="-240363129#0" from="3276199889" to="2481071750" priority="3" type="highway.residential" shape="709.69,1235.57 705.46,1219.31 700.45,1192.00 699.29,1174.06 697.42,1150.91">
        <lane id="-240363129#0_0" index="0" disallow="tram rail_urban rail rail_electric rail_fast ship" speed="13.89" length="85.77" shape="705.73,1226.70 703.90,1219.66 698.86,1192.20 697.69,1174.18 696.64,1161.15"/>
    </edge>
    <edge id="-240363129#1" from="3276199888" to="3276199889" priority="3" type="highway.residential" shape="731.73,1285.11 727.26,1280.72 721.13,1272.34 714.91,1255.62 709.69,1235.57">
        <lane id="-240363129#1_0" index="0" disallow="tram rail_urban rail rail_electric rail_fast ship" speed="13.89" length="55.19" shape="725.32,1280.78 719.71,1273.11 713.38,1256.10 709.68,1241.87"/>
    </edge>
    <edge id="-240388157" from="2481288039" to="2481288023" priority="3" type="highway.residential" shape="1222.62,931.47 1236.32,893.79 1237.60,890.29 1244.81,872.58 1261.29,832.05 1282.97,780.13">
        <lane id="-240388157_0" index="0" disallow="tram rail_urban rail rail_electric rail_fast ship" speed="13.89" length="162.96" shape="1224.13,922.64 1234.82,893.24 1236.11,889.71 1243.33,871.98 1259.81,831.44 1278.72,786.16"/>
    </edge>
    <edge id="-240388158#0" from="2481288037" to="2481287982" priority="3" type="highway.residential" shape="1240.05,1159.75 1247.14,1147.43 1265.89,1116.57 1270.74,1108.76 1289.40,1078.69 1294.34,1070.72 1328.77,1012.37">
        <lane id="-240388158#0_0" index="0" disallow="tram rail_urban rail rail_electric rail_fast ship" speed="13.89" length="172.03" shape="1242.15,1152.89 1245.76,1146.62 1264.52,1115.74 1269.38,1107.92 1288.04,1077.85 1292.97,1069.89 1323.54,1018.08"/>
    </edge>
    <edge id="-240388158#1" from="4542811039" to="2481288037" priority="3" type="highway.residential">
        <lane id="-240388158#1_0" index="0" disallow="tram rail_urban rail rail_electric rail_fast ship" speed="13.89" length="3.70" shape="1237.79,1160.64 1237.89,1160.46"/>
    </edge>
    <edge id="-240388158#2" from="2481288031" to="4542811039" priority="3" type="highway.residential" shape="1178.99,1255.74 1197.91,1224.67 1218.14,1193.86 1238.36,1163.04">
        <lane id="-240388158#2_0" index="0" disallow="tram rail_urban rail rail_electric rail_fast ship" speed="13.89" length="110.10" shape="1181.46,1248.60 1196.56,1223.81 1216.80,1192.98 1233.39,1167.70"/>
    </edge>
    <edge id="-240388159#0" from="2482692059" to="4537298624" priority="3" type="highway.residential" shape="1148.67,1113.57 1134.48,1106.33 1085.44,1084.48">
        <lane id="-240388159#0_0" index="0" disallow="tram rail_urban rail rail_electric rail_fast ship" speed="13.89" length="69.62" shape="1142.62,1112.28 1133.79,1107.77 1094.40,1090.22"/>
    </edge>
    <edge id="-240388159#1" from="2481288037" to="2482692059" priority="3" type="highway.residential" shape="1240.05,1159.75 1218.42,1149.12 1214.36,1147.13 1206.06,1142.89 1192.52,1135.96 1180.45,1129.80 1148.67,1113.57">
        <lane id="-240388159#1_0" index="0" disallow="tram rail_urban rail rail_electric rail_fast ship" speed="13.89" length="102.39" shape="1232.83,1157.99 1217.71,1150.56 1213.64,1148.56 1205.33,1144.31 1191.79,1137.38 1179.72,1131.22 1153.20,1117.68"/>
    </edge>
    <edge id="-240388160" from="2481287979" to="2481288003" priority="3" type="highway.residential" shape="1285.26,976.04 1301.95,928.08 1311.78,901.23 1319.40,880.44 1324.98,865.19 1328.58,855.36 1346.88,805.40">
        <lane id="-240388160_0" index="0" disallow="tram rail_urban rail rail_electric rail_fast ship" speed="13.89" length="181.43" shape="1286.46,967.72 1300.44,927.54 1310.28,900.68 1317.90,879.89 1323.48,864.64 1327.08,854.81 1342.80,811.87"/>
    </edge>
    <edge id="-240388167#0" from="2481289555" to="2476266091" priority="10" type="highway.tertiary" shape="1065.36,737.81 1088.55,765.09 1112.92,792.01 1161.91,848.87 1176.25,860.86">
        <lane id="-240388167#0_0" index="0" disallow="tram rail_urban rail rail_electric rail_fast ship" speed="22.22" length="165.86" shape="1070.33,741.19 1089.75,764.03 1114.12,790.95 1163.04,847.73 1168.29,852.12"/>
    </edge>
    <edge id="-240388167#1" from="3276832423" to="2481289555" priority="10" type="highway.tertiary" shape="999.56,664.92 1018.41,684.27 1029.93,696.82 1045.80,714.41 1065.36,737.81">
        <lane id="-240388167#1_0" index="0" disallow="tram rail_urban rail rail_electric rail_fast ship" speed="22.22" length="98.24" shape="1005.74,668.98 1019.57,683.17 1031.11,695.74 1047.01,713.36 1062.89,732.35"/>
    </edge>
    <edge id="-240388167#2" from="4540929540" to="3276832423" priority="10" type="highway.tertiary" shape="953.27,612.19 962.07,622.49 977.05,639.73 991.78,656.41 999.56,664.92">
        <lane id="-240388167#2_0" index="0" disallow="tram rail_urban rail rail_electric rail_fast ship" speed="22.22" length="70.17" shape="959.07,616.51 963.28,621.45 978.25,638.68 992.97,655.34 995.83,658.47"/>
    </edge>
    <edge id="-240388167#3" from="4508105356" to="4540929540" priority="10" type="highway.tertiary" shape="873.52,526.98 886.70,535.53 904.33,556.41 906.69,559.29 916.91,570.63 920.71,574.96 929.77,585.53 943.01,600.44 953.27,612.19">
        <lane id="-240388167#3_0" index="0" disallow="tram rail_urban rail rail_electric rail_fast ship" speed="22.22" length="117.25" shape="880.68,529.72 887.77,534.32 905.55,555.38 907.90,558.25 918.10,569.56 921.92,573.91 930.98,584.48 944.21,599.38 949.66,605.62"/>
    </edge>
    <edge id="-240392104#0" from="4501869243" to="3276199889" priority="3" type="highway.residential" shape="550.45,1167.85 556.32,1179.52 559.28,1184.14 565.17,1185.43 577.42,1186.76 587.23,1187.78 594.35,1190.11 602.82,1193.08 608.10,1194.94 638.29,1207.84 668.87,1219.99 696.38,1230.92 707.02,1235.15 709.69,1235.57">
        <lane id="-240392104#0_0" index="0" disallow="tram rail_urban rail rail_electric rail_fast ship" speed="13.89" length="178.27" shape="555.36,1174.04 557.71,1178.73 560.27,1182.72 565.43,1183.85 577.59,1185.17 587.57,1186.21 594.86,1188.59 603.35,1191.57 608.68,1193.45 638.90,1206.36 669.46,1218.50 696.97,1229.43 701.21,1231.12"/>
    </edge>
    <edge id="-240392104#1" from="8684232116" to="4501869243" priority="3" type="highway.residential">
        <lane id="-240392104#1_0" index="0" disallow="tram rail_urban rail rail_electric rail_fast ship" speed="13.89" length="25.54" shape="542.67,1149.84 548.73,1161.21"/>
    </edge>
    <edge id="-240392105#0" from="3276832418" to="2481287996" priority="3" type="highway.residential">
        <lane id="-240392105#0_0" index="0" disallow="tram rail_urban rail rail_electric rail_fast ship" speed="13.89" length="59.60" shape="1119.61,861.89 1159.22,876.44"/>
    </edge>
    <edge id="-240392105#1" from="3276832403" to="3276832418" priority="3" type="highway.residential" shape="1046.53,834.46 1072.81,845.03 1112.61,861.02">
        <lane id="-240392105#1_0" index="0" disallow="tram rail_urban rail rail_electric rail_fast ship" speed="13.89" length="71.22" shape="1051.75,834.83 1073.41,843.55 1106.29,856.76"/>
    </edge>
    <edge id="-240506675" from="2482348617" to="2482348523" priority="3" type="highway.residential" shape="1392.76,362.03 1401.34,370.39 1413.67,385.97 1427.44,397.87 1437.79,404.00 1442.17,406.60 1460.81,414.25 1480.47,422.32 1489.56,425.97 1498.70,429.67 1522.45,439.24 1562.69,456.22 1618.38,479.73">
        <lane id="-240506675_0" index="0" disallow="tram rail_urban rail rail_electric rail_fast ship" speed="13.89" length="257.96" shape="1402.29,369.08 1402.53,369.32 1414.83,384.86 1428.38,396.57 1438.61,402.62 1442.89,405.16 1461.42,412.77 1481.07,420.84 1490.16,424.49 1499.30,428.19 1523.06,437.76 1563.31,454.75 1616.62,477.25"/>
    </edge>
    <edge id="-240506679" from="2482348646" to="8684232107" priority="3" type="highway.residential" shape="242.50,1421.62 254.25,1407.07 283.57,1382.48 293.10,1374.48 318.50,1353.89 333.57,1338.08 334.02,1337.57 348.04,1321.82 369.75,1293.92 388.81,1262.13 400.50,1244.39">
        <lane id="-240506679_0" index="0" disallow="tram rail_urban rail rail_electric rail_fast ship" speed="13.89" length="239.38" shape="241.26,1420.61 253.10,1405.94 282.54,1381.25 292.08,1373.25 317.41,1352.71 332.41,1336.98 332.82,1336.51 346.81,1320.80 368.43,1293.01 387.46,1261.28 395.20,1249.52"/>
    </edge>
    <edge id="-240510774" from="2482385261" to="2482385288" priority="3" type="highway.residential" shape="1420.04,869.57 1422.31,871.78 1462.61,911.15">
        <lane id="-240510774_0" index="0" disallow="tram rail_urban rail rail_electric rail_fast ship" speed="13.89" length="59.51" shape="1421.29,868.56 1423.43,870.64 1457.35,903.77"/>
    </edge>
    <edge id="-240510777#0" from="4716456079" to="954152938" priority="10" type="highway.tertiary">
        <lane id="-240510777#0_0" index="0" disallow="tram rail_urban rail rail_electric rail_fast ship" speed="22.22" length="9.61" shape="1253.22,1294.54 1253.39,1294.64"/>
    </edge>
    <edge id="-240510777#1" from="2481288031" to="4716456079" priority="10" type="highway.tertiary" shape="1178.99,1255.74 1184.50,1258.69 1229.33,1282.69 1247.35,1292.87">
        <lane id="-240510777#1_0" index="0" disallow="tram rail_urban rail rail_electric rail_fast ship" speed="22.22" length="77.80" shape="1186.25,1257.81 1230.10,1281.29 1242.74,1288.43"/>
    </edge>
    <edge id="-240510789" from="954144454" to="2482385261" priority="3" type="highway.residential">
        <lane id="-240510789_0" index="0" disallow="tram rail_urban rail rail_electric rail_fast ship" speed="13.89" length="7.90" shape="1421.30,868.58 1421.42,868.74"/>
    </edge>
    <edge id="-241204743#0" from="4544539308" to="2482385365" priority="3" type="highway.residential" shape="1461.08,932.56 1458.38,938.70 1435.14,993.05 1418.00,1033.89 1404.92,1065.05 1366.54,1157.66 1298.29,1321.39">
        <lane id="-241204743#0_0" index="0" disallow="tram rail_urban rail rail_electric rail_fast ship" speed="13.89" length="421.54" shape="1459.65,939.79 1436.61,993.67 1419.48,1034.51 1406.40,1065.67 1368.02,1158.27 1299.77,1322.01"/>
    </edge>
    <edge id="-241204743#1" from="2482385288" to="4544539308" priority="3" type="highway.residential" shape="1462.61,911.15 1466.00,914.52 1467.09,916.59 1466.86,919.04 1465.80,922.20 1461.08,932.56">
        <lane id="-241204743#1_0" index="0" disallow="tram rail_urban rail rail_electric rail_fast ship" speed="13.89" length="24.26" shape="1467.75,914.42 1468.73,916.27 1468.44,919.37 1467.29,922.79 1465.54,926.62"/>
    </edge>
    <edge id="-241204743#2" from="4545913778" to="2482385288" priority="3" type="highway.residential" shape="1656.30,639.23 1640.03,666.55 1602.11,713.21 1575.14,744.12 1538.69,785.14 1508.47,821.39 1481.24,861.20 1462.61,911.15">
        <lane id="-241204743#2_0" index="0" disallow="tram rail_urban rail rail_electric rail_fast ship" speed="13.89" length="336.56" shape="1657.67,640.05 1641.35,667.47 1603.33,714.24 1576.34,745.18 1539.90,786.18 1509.75,822.36 1482.67,861.94 1467.22,903.36"/>
    </edge>
    <edge id="-243399011#0" from="2481287996" to="2476266091" priority="12" type="highway.primary">
        <lane id="-243399011#0_0" index="0" disallow="tram rail_urban rail rail_electric rail_fast ship" speed="27.78" length="22.09" shape="1166.56,873.17 1169.97,863.99"/>
        <lane id="-243399011#0_1" index="1" disallow="tram rail_urban rail rail_electric rail_fast ship" speed="27.78" length="22.09" shape="1169.56,874.28 1172.97,865.11"/>
        <param key="ref" value="5;1018"/>
    </edge>
    <edge id="-243399011#1" from="3276832413" to="2481287996" priority="12" type="highway.primary" shape="1127.46,980.96 1139.41,952.04 1168.56,881.57">
        <lane id="-243399011#1_0" index="0" disallow="tram rail_urban rail rail_electric rail_fast ship" speed="27.78" length="107.55" shape="1125.26,973.72 1134.97,950.21 1160.39,888.76"/>
        <lane id="-243399011#1_1" index="1" disallow="tram rail_urban rail rail_electric rail_fast ship" speed="27.78" length="107.55" shape="1128.21,974.95 1137.93,951.43 1163.35,889.99"/>
        <param key="ref" value="5;1018"/>
    </edge>
    <edge id="-243399011#2" from="4544139069" to="3276832413" priority="12" type="highway.primary">
        <lane id="-243399011#2_0" index="0" disallow="tram rail_urban rail rail_electric rail_fast ship" speed="27.78" length="2.59" shape="1123.05,979.07 1123.12,978.89"/>
        <lane id="-243399011#2_1" index="1" disallow="tram rail_urban rail rail_electric rail_fast ship" speed="27.78" length="2.59" shape="1126.01,980.28 1126.08,980.09"/>
        <param key="ref" value="5;1018"/>
    </edge>
    <edge id="-243399011#3" from="4537298624" to="4544139069" priority="12" type="highway.primary" shape="1085.44,1084.48 1087.61,1079.18 1100.10,1048.37 1103.01,1041.18 1126.70,982.83">
        <lane id="-243399011#3_0" index="0" disallow="tram rail_urban rail rail_electric rail_fast ship" speed="27.78" length="109.70" shape="1083.65,1076.18 1095.65,1046.57 1098.56,1039.37 1119.44,987.96"/>
        <lane id="-243399011#3_1" index="1" disallow="tram rail_urban rail rail_electric rail_fast ship" speed="27.78" length="109.70" shape="1086.61,1077.39 1098.62,1047.77 1101.53,1040.58 1122.40,989.17"/>
        <param key="ref" value="5;1018"/>
    </edge>
    <edge id="-243399011#4" from="4014031993" to="4537298624" priority="12" type="highway.primary" shape="1044.38,1185.36 1046.38,1180.20 1051.05,1168.10 1052.09,1165.38 1055.52,1156.50 1065.81,1132.09 1076.33,1107.14 1085.44,1084.48">
        <lane id="-243399011#4_0" index="0" disallow="tram rail_urban rail rail_electric rail_fast ship" speed="27.78" length="108.93" shape="1042.86,1175.99 1046.57,1166.37 1047.61,1163.65 1051.07,1154.70 1061.39,1130.23 1071.89,1105.31 1078.21,1089.59"/>
        <lane id="-243399011#4_1" index="1" disallow="tram rail_urban rail rail_electric rail_fast ship" speed="27.78" length="108.93" shape="1045.84,1177.15 1049.56,1167.52 1050.60,1164.80 1054.04,1155.90 1064.34,1131.47 1074.85,1106.53 1081.18,1090.78"/>
        <param key="ref" value="5;1018"/>
    </edge>
    <edge id="-243443852#0" from="2482692155" to="4014031993" priority="10" type="highway.tertiary" shape="986.52,1155.29 1026.82,1175.43 1027.73,1175.88 1028.96,1176.59 1044.38,1185.36">
        <lane id="-243443852#0_0" index="0" disallow="tram rail_urban rail rail_electric rail_fast ship" speed="22.22" length="65.23" shape="991.79,1156.14 1027.54,1174.00 1028.49,1174.47 1029.76,1175.20 1035.66,1178.56"/>
    </edge>
    <edge id="-243443852#1" from="4537298623" to="2482692155" priority="10" type="highway.tertiary" shape="904.48,1112.74 969.89,1146.21 986.52,1155.29">
        <lane id="-243443852#1_0" index="0" disallow="tram rail_urban rail rail_electric rail_fast ship" speed="22.22" length="92.42" shape="911.56,1114.57 970.64,1144.80 982.51,1151.28"/>
    </edge>
    <edge id="-243443852#2" from="3276832422" to="4537298623" priority="10" type="highway.tertiary">
        <lane id="-243443852#2_0" index="0" disallow="tram rail_urban rail rail_electric rail_fast ship" speed="22.22" length="94.90" shape="825.94,1070.20 898.78,1107.98"/>
    </edge>
    <edge id="-243443852#3" from="2481071757" to="3276832422" priority="10" type="highway.tertiary">
        <lane id="-243443852#3_0" index="0" disallow="tram rail_urban rail rail_electric rail_fast ship" speed="22.22" length="21.92" shape="807.82,1060.79 816.04,1065.06"/>
    </edge>
    <edge id="-243443852#4" from="954152962" to="2481071757" priority="10" type="highway.tertiary" shape="746.40,1042.28 759.43,1041.61 770.94,1043.76 800.78,1058.94">
        <lane id="-243443852#4_0" index="0" disallow="tram rail_urban rail rail_electric rail_fast ship" speed="22.22" length="58.24" shape="754.48,1040.26 759.54,1040.00 771.46,1042.23 794.98,1054.19"/>
    </edge>
    <edge id="-243443852#5" from="3987606694" to="954152962" priority="10" type="highway.tertiary" shape="687.33,1064.60 715.32,1049.99 728.24,1045.67 746.40,1042.28">
        <lane id="-243443852#5_0" index="0" disallow="tram rail_urban rail rail_electric rail_fast ship" speed="22.22" length="63.67" shape="692.74,1059.97 714.69,1048.51 727.84,1044.12 741.96,1041.48"/>
    </edge>
    <edge id="-243443852#6" from="2481071760" to="3987606694" priority="10" type="highway.tertiary" shape="656.74,1080.28 661.29,1078.19 687.33,1064.60">
        <lane id="-243443852#6_0" index="0" disallow="tram rail_urban rail rail_electric rail_fast ship" speed="22.22" length="34.38" shape="662.64,1075.68 679.96,1066.64"/>
    </edge>
    <edge id="-243443852#7" from="954152966" to="2481071760" priority="10" type="highway.tertiary" shape="549.37,1132.50 611.85,1102.12 656.74,1080.28">
        <lane id="-243443852#7_0" index="0" disallow="tram rail_urban rail rail_electric rail_fast ship" speed="22.22" length="119.40" shape="567.75,1121.78 611.15,1100.68 649.57,1081.99"/>
    </edge>
    <edge id="-243463807#0" from="2482348617" to="2508641920" priority="12" type="highway.primary" shape="1392.76,362.03 1397.05,353.44 1407.10,330.83 1429.16,281.96 1450.50,237.67 1457.47,223.14 1464.69,207.52 1470.82,195.04 1474.51,187.53 1492.51,159.18 1502.67,141.95 1520.85,115.27 1531.65,97.75">
        <lane id="-243463807#0_0" index="0" disallow="tram rail_urban rail rail_electric rail_fast ship" speed="27.78" length="299.17" shape="1390.84,355.13 1392.71,351.39 1402.72,328.87 1424.81,279.93 1446.17,235.59 1453.13,221.09 1460.36,205.45 1466.51,192.92 1470.32,185.18 1488.42,156.67 1498.62,139.38 1516.82,112.66 1527.56,95.23"/>
        <lane id="-243463807#0_1" index="1" disallow="tram rail_urban rail rail_electric rail_fast ship" speed="27.78" length="299.17" shape="1393.70,356.56 1395.60,352.76 1405.64,330.18 1427.71,281.28 1449.06,236.98 1456.02,222.46 1463.25,206.83 1469.38,194.33 1473.11,186.75 1491.15,158.34 1501.32,141.09 1519.51,114.40 1530.29,96.91"/>
        <param key="ref" value="5;1018"/>
    </edge>
    <edge id="-243463807#1" from="2476266134" to="2482348617" priority="12" type="highway.primary" shape="1327.36,502.32 1337.39,481.39 1344.82,464.63 1355.73,441.92 1358.31,436.11 1378.39,390.82 1392.76,362.03">
        <lane id="-243463807#1_0" index="0" disallow="tram rail_urban rail rail_electric rail_fast ship" speed="27.78" length="154.81" shape="1326.23,493.58 1333.03,479.38 1340.46,462.62 1351.37,439.91 1353.92,434.16 1374.05,388.77 1384.26,368.30"/>
        <lane id="-243463807#1_1" index="1" disallow="tram rail_urban rail rail_electric rail_fast ship" speed="27.78" length="154.81" shape="1329.11,494.96 1335.94,480.72 1343.37,463.96 1354.28,441.25 1356.85,435.46 1376.94,390.14 1387.13,369.73"/>
        <param key="ref" value="5;1018"/>
    </edge>
    <edge id="-243463807#2" from="4542657187" to="2476266134" priority="12" type="highway.primary">
        <lane id="-243463807#2_0" index="0" disallow="tram rail_urban rail rail_electric rail_fast ship" speed="27.78" length="53.72" shape="1304.73,542.92 1319.18,509.23"/>
        <lane id="-243463807#2_1" index="1" disallow="tram rail_urban rail rail_electric rail_fast ship" speed="27.78" length="53.72" shape="1307.67,544.18 1322.12,510.49"/>
        <param key="ref" value="5;1018"/>
    </edge>
    <edge id="-243463807#3" from="3276832433" to="4542657187" priority="12" type="highway.primary" shape="1272.44,631.19 1282.75,607.04 1292.33,584.41 1306.19,551.69">
        <lane id="-243463807#3_0" index="0" disallow="tram rail_urban rail rail_electric rail_fast ship" speed="27.78" length="86.37" shape="1271.00,622.34 1278.33,605.16 1287.91,582.54 1299.08,556.17"/>