<?xml version="1.0" encoding="UTF-8"?>

<!-- generated on 2022-02-10 14:01:56 by Eclipse SUMO netedit Version 1.12.0
<configuration xmlns:xsi="http://www.w3.org/2001/XMLSchema-instance" xsi:noNamespaceSchemaLocation="http://sumo.dlr.de/xsd/netconvertConfiguration.xsd">

    <input>
        <sumo-net-file value="C:\Program%20Files%20(x86)\Eclipse\Sumo\RL\rl1.net.xml"/>
    </input>

    <output>
        <output-file value="C:\Program%20Files%20(x86)\Eclipse\Sumo\RL\rl1.net.xml"/>
    </output>

    <processing>
        <geometry.min-radius.fix.railways value="false"/>
        <geometry.max-grade.fix value="false"/>
        <offset.disable-normalization value="true"/>
        <lefthand value="false"/>
    </processing>

    <junctions>
        <no-turnarounds value="true"/>
        <junctions.corner-detail value="5"/>
        <junctions.limit-turn-speed value="5.5"/>
        <rectangular-lane-cut value="false"/>
    </junctions>

    <pedestrian>
        <walkingareas value="false"/>
    </pedestrian>

    <report>
        <aggregate-warnings value="5"/>
    </report>

</configuration>
-->

<net version="1.9" junctionCornerDetail="5" limitTurnSpeed="5.50" xmlns:xsi="http://www.w3.org/2001/XMLSchema-instance" xsi:noNamespaceSchemaLocation="http://sumo.dlr.de/xsd/net_file.xsd">

    <location netOffset="0.00,0.00" convBoundary="-510.00,-200.00,510.00,200.00" origBoundary="-10000000000.00,-10000000000.00,10000000000.00,10000000000.00" projParameter="!"/>

    <edge id=":A_0" function="internal">
        <lane id=":A_0_0" index="0" speed="13.89" length="0.10" shape="-500.00,1.60 -500.00,1.60"/>
    </edge>
    <edge id=":A_1" function="internal">
        <lane id=":A_1_0" index="0" speed="13.89" length="0.10" shape="-500.00,-1.60 -500.00,-1.60"/>
    </edge>
    <edge id=":B_0" function="internal">
        <lane id=":B_0_0" index="0" speed="6.08" length="7.74" shape="-296.80,201.60 -298.90,201.30 -300.40,200.40 -301.30,198.90 -301.60,196.80"/>
    </edge>
    <edge id=":B_1" function="internal">
        <lane id=":B_1_0" index="0" speed="3.90" length="2.58" shape="-298.40,196.80 -298.30,197.50 -298.00,198.00 -297.50,198.30 -296.80,198.40"/>
    </edge>
    <edge id=":C_0" function="internal">
        <lane id=":C_0_0" index="0" speed="6.51" length="9.03" shape="-301.60,7.20 -301.95,4.75 -303.00,3.00 -304.75,1.95 -307.20,1.60"/>
    </edge>
    <edge id=":C_1" function="internal">
        <lane id=":C_1_0" index="0" speed="13.89" length="14.40" shape="-301.60,7.20 -301.60,-7.20"/>
    </edge>
    <edge id=":C_2" function="internal">
        <lane id=":C_2_0" index="0" speed="8.00" length="4.07" shape="-301.60,7.20 -301.05,3.35 -300.96,3.20"/>
    </edge>
    <edge id=":C_12" function="internal">
        <lane id=":C_12_0" index="0" speed="8.00" length="10.13" shape="-300.96,3.20 -299.40,0.60 -296.65,-1.05 -292.80,-1.60"/>
    </edge>
    <edge id=":C_3" function="internal">
        <lane id=":C_3_0" index="0" speed="6.51" length="9.03" shape="-292.80,1.60 -295.25,1.95 -297.00,3.00 -298.05,4.75 -298.40,7.20"/>
    </edge>
    <edge id=":C_4" function="internal">
        <lane id=":C_4_0" index="0" speed="13.89" length="14.40" shape="-292.80,1.60 -307.20,1.60"/>
    </edge>
    <edge id=":C_5" function="internal">
        <lane id=":C_5_0" index="0" speed="8.00" length="14.19" shape="-292.80,1.60 -296.65,1.05 -299.40,-0.60 -301.05,-3.35 -301.60,-7.20"/>
    </edge>
    <edge id=":C_6" function="internal">
        <lane id=":C_6_0" index="0" speed="6.51" length="9.03" shape="-298.40,-7.20 -298.05,-4.75 -297.00,-3.00 -295.25,-1.95 -292.80,-1.60"/>
    </edge>
    <edge id=":C_7" function="internal">
        <lane id=":C_7_0" index="0" speed="13.89" length="14.40" shape="-298.40,-7.20 -298.40,7.20"/>
    </edge>
    <edge id=":C_8" function="internal">
        <lane id=":C_8_0" index="0" speed="8.00" length="4.07" shape="-298.40,-7.20 -298.95,-3.35 -299.04,-3.20"/>
    </edge>
    <edge id=":C_13" function="internal">
        <lane id=":C_13_0" index="0" speed="8.00" length="10.13" shape="-299.04,-3.20 -300.60,-0.60 -303.35,1.05 -307.20,1.60"/>
    </edge>
    <edge id=":C_9" function="internal">
        <lane id=":C_9_0" index="0" speed="6.51" length="9.03" shape="-307.20,-1.60 -304.75,-1.95 -303.00,-3.00 -301.95,-4.75 -301.60,-7.20"/>
    </edge>
    <edge id=":C_10" function="internal">
        <lane id=":C_10_0" index="0" speed="13.89" length="14.40" shape="-307.20,-1.60 -292.80,-1.60"/>
    </edge>
    <edge id=":C_11" function="internal">
        <lane id=":C_11_0" index="0" speed="8.00" length="14.19" shape="-307.20,-1.60 -303.35,-1.05 -300.60,0.60 -298.95,3.35 -298.40,7.20"/>
    </edge>
    <edge id=":D_0" function="internal">
        <lane id=":D_0_0" index="0" speed="6.08" length="7.74" shape="-301.60,-196.80 -301.30,-198.90 -300.40,-200.40 -298.90,-201.30 -296.80,-201.60"/>
    </edge>
    <edge id=":D_1" function="internal">
        <lane id=":D_1_0" index="0" speed="3.90" length="2.58" shape="-296.80,-198.40 -297.50,-198.30 -298.00,-198.00 -298.30,-197.50 -298.40,-196.80"/>
    </edge>
    <edge id=":E_0" function="internal">
        <lane id=":E_0_0" index="0" speed="13.89" length="14.40" shape="-92.80,201.60 -107.20,201.60"/>
    </edge>
    <edge id=":E_1" function="internal">
        <lane id=":E_1_0" index="0" speed="8.00" length="4.07" shape="-92.80,201.60 -96.65,201.05 -96.80,200.96"/>
    </edge>
    <edge id=":E_6" function="internal">
        <lane id=":E_6_0" index="0" speed="8.00" length="10.13" shape="-96.80,200.96 -99.40,199.40 -101.05,196.65 -101.60,192.80"/>
    </edge>
    <edge id=":E_2" function="internal">
        <lane id=":E_2_0" index="0" speed="6.51" length="9.03" shape="-98.40,192.80 -98.05,195.25 -97.00,197.00 -95.25,198.05 -92.80,198.40"/>
    </edge>
    <edge id=":E_3" function="internal">
        <lane id=":E_3_0" index="0" speed="8.00" length="14.19" shape="-98.40,192.80 -98.95,196.65 -100.60,199.40 -103.35,201.05 -107.20,201.60"/>
    </edge>
    <edge id=":E_4" function="internal">
        <lane id=":E_4_0" index="0" speed="6.51" length="9.03" shape="-107.20,198.40 -104.75,198.05 -103.00,197.00 -101.95,195.25 -101.60,192.80"/>
    </edge>
    <edge id=":E_5" function="internal">
        <lane id=":E_5_0" index="0" speed="13.89" length="14.40" shape="-107.20,198.40 -92.80,198.40"/>
    </edge>
    <edge id=":F_0" function="internal">
        <lane id=":F_0_0" index="0" speed="6.51" length="9.03" shape="-101.60,7.20 -101.95,4.75 -103.00,3.00 -104.75,1.95 -107.20,1.60"/>
    </edge>
    <edge id=":F_1" function="internal">
        <lane id=":F_1_0" index="0" speed="13.89" length="14.40" shape="-101.60,7.20 -101.60,-7.20"/>
    </edge>
    <edge id=":F_2" function="internal">
        <lane id=":F_2_0" index="0" speed="8.00" length="4.07" shape="-101.60,7.20 -101.05,3.35 -100.96,3.20"/>
    </edge>
    <edge id=":F_12" function="internal">
        <lane id=":F_12_0" index="0" speed="8.00" length="10.13" shape="-100.96,3.20 -99.40,0.60 -96.65,-1.05 -92.80,-1.60"/>
    </edge>
    <edge id=":F_3" function="internal">
        <lane id=":F_3_0" index="0" speed="6.51" length="9.03" shape="-92.80,1.60 -95.25,1.95 -97.00,3.00 -98.05,4.75 -98.40,7.20"/>
    </edge>
    <edge id=":F_4" function="internal">
        <lane id=":F_4_0" index="0" speed="13.89" length="14.40" shape="-92.80,1.60 -107.20,1.60"/>
    </edge>
    <edge id=":F_5" function="internal">
        <lane id=":F_5_0" index="0" speed="8.00" length="14.19" shape="-92.80,1.60 -96.65,1.05 -99.40,-0.60 -101.05,-3.35 -101.60,-7.20"/>
    </edge>
    <edge id=":F_6" function="internal">
        <lane id=":F_6_0" index="0" speed="6.51" length="9.03" shape="-98.40,-7.20 -98.05,-4.75 -97.00,-3.00 -95.25,-1.95 -92.80,-1.60"/>
    </edge>
    <edge id=":F_7" function="internal">
        <lane id=":F_7_0" index="0" speed="13.89" length="14.40" shape="-98.40,-7.20 -98.40,7.20"/>
    </edge>
    <edge id=":F_8" function="internal">
        <lane id=":F_8_0" index="0" speed="8.00" length="4.07" shape="-98.40,-7.20 -98.95,-3.35 -99.04,-3.20"/>
    </edge>
    <edge id=":F_13" function="internal">
        <lane id=":F_13_0" index="0" speed="8.00" length="10.13" shape="-99.04,-3.20 -100.60,-0.60 -103.35,1.05 -107.20,1.60"/>
    </edge>
    <edge id=":F_9" function="internal">
        <lane id=":F_9_0" index="0" speed="6.51" length="9.03" shape="-107.20,-1.60 -104.75,-1.95 -103.00,-3.00 -101.95,-4.75 -101.60,-7.20"/>
    </edge>
    <edge id=":F_10" function="internal">
        <lane id=":F_10_0" index="0" speed="13.89" length="14.40" shape="-107.20,-1.60 -92.80,-1.60"/>
    </edge>
    <edge id=":F_11" function="internal">
        <lane id=":F_11_0" index="0" speed="8.00" length="14.19" shape="-107.20,-1.60 -103.35,-1.05 -100.60,0.60 -98.95,3.35 -98.40,7.20"/>
    </edge>
    <edge id=":G_0" function="internal">
        <lane id=":G_0_0" index="0" speed="6.51" length="9.03" shape="-101.60,-192.80 -101.95,-195.25 -103.00,-197.00 -104.75,-198.05 -107.20,-198.40"/>
    </edge>
    <edge id=":G_1" function="internal">
        <lane id=":G_1_0" index="0" speed="8.00" length="14.19" shape="-101.60,-192.80 -101.05,-196.65 -99.40,-199.40 -96.65,-201.05 -92.80,-201.60"/>
    </edge>
    <edge id=":G_2" function="internal">
        <lane id=":G_2_0" index="0" speed="6.51" length="9.03" shape="-92.80,-198.40 -95.25,-198.05 -97.00,-197.00 -98.05,-195.25 -98.40,-192.80"/>
    </edge>
    <edge id=":G_3" function="internal">
        <lane id=":G_3_0" index="0" speed="13.89" length="14.40" shape="-92.80,-198.40 -107.20,-198.40"/>
    </edge>
    <edge id=":G_4" function="internal">
        <lane id=":G_4_0" index="0" speed="13.89" length="14.40" shape="-107.20,-201.60 -92.80,-201.60"/>
    </edge>
    <edge id=":G_5" function="internal">
        <lane id=":G_5_0" index="0" speed="8.00" length="4.07" shape="-107.20,-201.60 -103.35,-201.05 -103.20,-200.96"/>
    </edge>
    <edge id=":G_6" function="internal">
        <lane id=":G_6_0" index="0" speed="8.00" length="10.13" shape="-103.20,-200.96 -100.60,-199.40 -98.95,-196.65 -98.40,-192.80"/>
    </edge>
    <edge id=":H_0" function="internal">
        <lane id=":H_0_0" index="0" speed="13.89" length="14.40" shape="107.20,201.60 92.80,201.60"/>
    </edge>
    <edge id=":H_1" function="internal">
        <lane id=":H_1_0" index="0" speed="8.00" length="4.07" shape="107.20,201.60 103.35,201.05 103.20,200.96"/>
    </edge>
    <edge id=":H_6" function="internal">
        <lane id=":H_6_0" index="0" speed="8.00" length="10.13" shape="103.20,200.96 100.60,199.40 98.95,196.65 98.40,192.80"/>
    </edge>
    <edge id=":H_2" function="internal">
        <lane id=":H_2_0" index="0" speed="6.51" length="9.03" shape="101.60,192.80 101.95,195.25 103.00,197.00 104.75,198.05 107.20,198.40"/>
    </edge>
    <edge id=":H_3" function="internal">
        <lane id=":H_3_0" index="0" speed="8.00" length="14.19" shape="101.60,192.80 101.05,196.65 99.40,199.40 96.65,201.05 92.80,201.60"/>
    </edge>
    <edge id=":H_4" function="internal">
        <lane id=":H_4_0" index="0" speed="6.51" length="9.03" shape="92.80,198.40 95.25,198.05 97.00,197.00 98.05,195.25 98.40,192.80"/>
    </edge>
    <edge id=":H_5" function="internal">
        <lane id=":H_5_0" index="0" speed="13.89" length="14.40" shape="92.80,198.40 107.20,198.40"/>
    </edge>
    <edge id=":I_0" function="internal">
        <lane id=":I_0_0" index="0" speed="6.51" length="9.03" shape="98.40,7.20 98.05,4.75 97.00,3.00 95.25,1.95 92.80,1.60"/>
    </edge>
    <edge id=":I_1" function="internal">
        <lane id=":I_1_0" index="0" speed="13.89" length="14.40" shape="98.40,7.20 98.40,-7.20"/>
    </edge>
    <edge id=":I_2" function="internal">
        <lane id=":I_2_0" index="0" speed="8.00" length="4.07" shape="98.40,7.20 98.95,3.35 99.04,3.20"/>
    </edge>
    <edge id=":I_12" function="internal">
        <lane id=":I_12_0" index="0" speed="8.00" length="10.13" shape="99.04,3.20 100.60,0.60 103.35,-1.05 107.20,-1.60"/>
    </edge>
    <edge id=":I_3" function="internal">
        <lane id=":I_3_0" index="0" speed="6.51" length="9.03" shape="107.20,1.60 104.75,1.95 103.00,3.00 101.95,4.75 101.60,7.20"/>
    </edge>
    <edge id=":I_4" function="internal">
        <lane id=":I_4_0" index="0" speed="13.89" length="14.40" shape="107.20,1.60 92.80,1.60"/>
    </edge>
    <edge id=":I_5" function="internal">
        <lane id=":I_5_0" index="0" speed="8.00" length="14.19" shape="107.20,1.60 103.35,1.05 100.60,-0.60 98.95,-3.35 98.40,-7.20"/>
    </edge>
    <edge id=":I_6" function="internal">
        <lane id=":I_6_0" index="0" speed="6.51" length="9.03" shape="101.60,-7.20 101.95,-4.75 103.00,-3.00 104.75,-1.95 107.20,-1.60"/>
    </edge>
    <edge id=":I_7" function="internal">
        <lane id=":I_7_0" index="0" speed="13.89" length="14.40" shape="101.60,-7.20 101.60,7.20"/>
    </edge>
    <edge id=":I_8" function="internal">
        <lane id=":I_8_0" index="0" speed="8.00" length="4.07" shape="101.60,-7.20 101.05,-3.35 100.96,-3.20"/>
    </edge>
    <edge id=":I_13" function="internal">
        <lane id=":I_13_0" index="0" speed="8.00" length="10.13" shape="100.96,-3.20 99.40,-0.60 96.65,1.05 92.80,1.60"/>
    </edge>
    <edge id=":I_9" function="internal">
        <lane id=":I_9_0" index="0" speed="6.51" length="9.03" shape="92.80,-1.60 95.25,-1.95 97.00,-3.00 98.05,-4.75 98.40,-7.20"/>
    </edge>
    <edge id=":I_10" function="internal">
        <lane id=":I_10_0" index="0" speed="13.89" length="14.40" shape="92.80,-1.60 107.20,-1.60"/>
    </edge>
    <edge id=":I_11" function="internal">
        <lane id=":I_11_0" index="0" speed="8.00" length="14.19" shape="92.80,-1.60 96.65,-1.05 99.40,0.60 101.05,3.35 101.60,7.20"/>
    </edge>
    <edge id=":J_0" function="internal">
        <lane id=":J_0_0" index="0" speed="6.51" length="9.03" shape="98.40,-192.80 98.05,-195.25 97.00,-197.00 95.25,-198.05 92.80,-198.40"/>
    </edge>
    <edge id=":J_1" function="internal">
        <lane id=":J_1_0" index="0" speed="8.00" length="14.19" shape="98.40,-192.80 98.95,-196.65 100.60,-199.40 103.35,-201.05 107.20,-201.60"/>
    </edge>
    <edge id=":J_2" function="internal">
        <lane id=":J_2_0" index="0" speed="6.51" length="9.03" shape="107.20,-198.40 104.75,-198.05 103.00,-197.00 101.95,-195.25 101.60,-192.80"/>
    </edge>
    <edge id=":J_3" function="internal">
        <lane id=":J_3_0" index="0" speed="13.89" length="14.40" shape="107.20,-198.40 92.80,-198.40"/>
    </edge>
    <edge id=":J_4" function="internal">
        <lane id=":J_4_0" index="0" speed="13.89" length="14.40" shape="92.80,-201.60 107.20,-201.60"/>
    </edge>
    <edge id=":J_5" function="internal">
        <lane id=":J_5_0" index="0" speed="8.00" length="4.07" shape="92.80,-201.60 96.65,-201.05 96.80,-200.96"/>
    </edge>
    <edge id=":J_6" function="internal">
        <lane id=":J_6_0" index="0" speed="8.00" length="10.13" shape="96.80,-200.96 99.40,-199.40 101.05,-196.65 101.60,-192.80"/>
    </edge>
    <edge id=":K_0" function="internal">
        <lane id=":K_0_0" index="0" speed="6.08" length="7.74" shape="301.60,196.80 301.30,198.90 300.40,200.40 298.90,201.30 296.80,201.60"/>
    </edge>
    <edge id=":K_1" function="internal">
        <lane id=":K_1_0" index="0" speed="3.90" length="2.58" shape="296.80,198.40 297.50,198.30 298.00,198.00 298.30,197.50 298.40,196.80"/>
    </edge>
    <edge id=":L_0" function="internal">
        <lane id=":L_0_0" index="0" speed="6.51" length="9.03" shape="298.40,7.20 298.05,4.75 297.00,3.00 295.25,1.95 292.80,1.60"/>
    </edge>
    <edge id=":L_1" function="internal">
        <lane id=":L_1_0" index="0" speed="13.89" length="14.40" shape="298.40,7.20 298.40,-7.20"/>
    </edge>
    <edge id=":L_2" function="internal">
        <lane id=":L_2_0" index="0" speed="8.00" length="4.07" shape="298.40,7.20 298.95,3.35 299.04,3.20"/>
    </edge>
    <edge id=":L_12" function="internal">
        <lane id=":L_12_0" index="0" speed="8.00" length="10.13" shape="299.04,3.20 300.60,0.60 303.35,-1.05 307.20,-1.60"/>
    </edge>
    <edge id=":L_3" function="internal">
        <lane id=":L_3_0" index="0" speed="6.51" length="9.03" shape="307.20,1.60 304.75,1.95 303.00,3.00 301.95,4.75 301.60,7.20"/>
    </edge>
    <edge id=":L_4" function="internal">
        <lane id=":L_4_0" index="0" speed="13.89" length="14.40" shape="307.20,1.60 292.80,1.60"/>
    </edge>
    <edge id=":L_5" function="internal">
        <lane id=":L_5_0" index="0" speed="8.00" length="14.19" shape="307.20,1.60 303.35,1.05 300.60,-0.60 298.95,-3.35 298.40,-7.20"/>
    </edge>
    <edge id=":L_6" function="internal">
        <lane id=":L_6_0" index="0" speed="6.51" length="9.03" shape="301.60,-7.20 301.95,-4.75 303.00,-3.00 304.75,-1.95 307.20,-1.60"/>
    </edge>
    <edge id=":L_7" function="internal">
        <lane id=":L_7_0" index="0" speed="13.89" length="14.40" shape="301.60,-7.20 301.60,7.20"/>
    </edge>
    <edge id=":L_8" function="internal">
        <lane id=":L_8_0" index="0" speed="8.00" length="4.07" shape="301.60,-7.20 301.05,-3.35 300.96,-3.20"/>
    </edge>
    <edge id=":L_13" function="internal">
        <lane id=":L_13_0" index="0" speed="8.00" length="10.13" shape="300.96,-3.20 299.40,-0.60 296.65,1.05 292.80,1.60"/>
    </edge>
    <edge id=":L_9" function="internal">
        <lane id=":L_9_0" index="0" speed="6.51" length="9.03" shape="292.80,-1.60 295.25,-1.95 297.00,-3.00 298.05,-4.75 298.40,-7.20"/>
    </edge>
    <edge id=":L_10" function="internal">
        <lane id=":L_10_0" index="0" speed="13.89" length="14.40" shape="292.80,-1.60 307.20,-1.60"/>
    </edge>
    <edge id=":L_11" function="internal">
        <lane id=":L_11_0" index="0" speed="8.00" length="14.19" shape="292.80,-1.60 296.65,-1.05 299.40,0.60 301.05,3.35 301.60,7.20"/>
    </edge>
    <edge id=":M_0" function="internal">
        <lane id=":M_0_0" index="0" speed="3.90" length="2.58" shape="298.40,-196.80 298.30,-197.50 298.00,-198.00 297.50,-198.30 296.80,-198.40"/>
    </edge>
    <edge id=":M_1" function="internal">
        <lane id=":M_1_0" index="0" speed="6.08" length="7.74" shape="296.80,-201.60 298.90,-201.30 300.40,-200.40 301.30,-198.90 301.60,-196.80"/>
    </edge>
    <edge id=":N_0" function="internal">
        <lane id=":N_0_0" index="0" speed="13.89" length="0.10" shape="500.00,1.60 500.00,1.60"/>
    </edge>
    <edge id=":N_1" function="internal">
        <lane id=":N_1_0" index="0" speed="13.89" length="0.10" shape="500.00,-1.60 500.00,-1.60"/>
    </edge>

    <edge id="-E0" from="C" to="A" priority="-1">
        <lane id="-E0_0" index="0" speed="13.89" length="192.80" shape="-307.20,1.60 -500.00,1.60"/>
    </edge>
    <edge id="-E1" from="F" to="C" priority="-1">
        <lane id="-E1_0" index="0" speed="13.89" length="185.60" shape="-107.20,1.60 -292.80,1.60"/>
    </edge>
    <edge id="-E10" from="D" to="C" priority="-1">
        <lane id="-E10_0" index="0" speed="13.89" length="189.60" shape="-298.40,-196.80 -298.40,-7.20"/>
    </edge>
    <edge id="-E11" from="G" to="D" priority="-1">
        <lane id="-E11_0" index="0" speed="13.89" length="189.60" shape="-107.20,-198.40 -296.80,-198.40"/>
    </edge>
    <edge id="-E12" from="J" to="G" priority="-1">
        <lane id="-E12_0" index="0" speed="13.89" length="185.60" shape="92.80,-198.40 -92.80,-198.40"/>
    </edge>
    <edge id="-E13" from="M" to="J" priority="-1">
        <lane id="-E13_0" index="0" speed="13.89" length="189.60" shape="296.80,-198.40 107.20,-198.40"/>
    </edge>
    <edge id="-E14" from="M" to="L" priority="-1">
        <lane id="-E14_0" index="0" speed="13.89" length="189.60" shape="301.60,-196.80 301.60,-7.20"/>
    </edge>
    <edge id="-E15" from="F" to="E" priority="-1">
        <lane id="-E15_0" index="0" speed="13.89" length="185.60" shape="-98.40,7.20 -98.40,192.80"/>
    </edge>
    <edge id="-E16" from="G" to="F" priority="-1">
        <lane id="-E16_0" index="0" speed="13.89" length="185.60" shape="-98.40,-192.80 -98.40,-7.20"/>
    </edge>
    <edge id="-E17" from="I" to="H" priority="-1">
        <lane id="-E17_0" index="0" speed="13.89" length="185.60" shape="101.60,7.20 101.60,192.80"/>
    </edge>
    <edge id="-E18" from="J" to="I" priority="-1">
        <lane id="-E18_0" index="0" speed="13.89" length="185.60" shape="101.60,-192.80 101.60,-7.20"/>
    </edge>
    <edge id="-E19" from="A" to="Z" priority="-1">
        <lane id="-E19_0" index="0" speed="13.89" length="10.00" shape="-500.00,1.60 -510.00,1.60"/>
    </edge>
    <edge id="-E2" from="I" to="F" priority="-1">
        <lane id="-E2_0" index="0" speed="13.89" length="185.60" shape="92.80,1.60 -92.80,1.60"/>
    </edge>
    <edge id="-E20" from="O" to="N" priority="-1">
        <lane id="-E20_0" index="0" speed="13.89" length="10.00" shape="510.00,1.60 500.00,1.60"/>
    </edge>
    <edge id="-E3" from="L" to="I" priority="-1">
        <lane id="-E3_0" index="0" speed="13.89" length="185.60" shape="292.80,1.60 107.20,1.60"/>
    </edge>
    <edge id="-E4" from="N" to="L" priority="-1">
        <lane id="-E4_0" index="0" speed="13.89" length="192.80" shape="500.00,1.60 307.20,1.60"/>
    </edge>
    <edge id="-E5" from="C" to="B" priority="-1">
        <lane id="-E5_0" index="0" speed="13.89" length="189.60" shape="-298.40,7.20 -298.40,196.80"/>
    </edge>
    <edge id="-E6" from="E" to="B" priority="-1">
        <lane id="-E6_0" index="0" speed="13.89" length="189.60" shape="-107.20,201.60 -296.80,201.60"/>
    </edge>
    <edge id="-E7" from="H" to="E" priority="-1">
        <lane id="-E7_0" index="0" speed="13.89" length="185.60" shape="92.80,201.60 -92.80,201.60"/>
    </edge>
    <edge id="-E8" from="K" to="H" priority="-1">
        <lane id="-E8_0" index="0" speed="13.89" length="189.60" shape="296.80,201.60 107.20,201.60"/>
    </edge>
    <edge id="-E9" from="L" to="K" priority="-1">
        <lane id="-E9_0" index="0" speed="13.89" length="189.60" shape="301.60,7.20 301.60,196.80"/>
    </edge>
    <edge id="E0" from="A" to="C" priority="-1">
        <lane id="E0_0" index="0" speed="13.89" length="192.80" shape="-500.00,-1.60 -307.20,-1.60"/>
    </edge>
    <edge id="E1" from="C" to="F" priority="-1">
        <lane id="E1_0" index="0" speed="13.89" length="185.60" shape="-292.80,-1.60 -107.20,-1.60"/>
    </edge>
    <edge id="E10" from="C" to="D" priority="-1">
        <lane id="E10_0" index="0" speed="13.89" length="189.60" shape="-301.60,-7.20 -301.60,-196.80"/>
    </edge>
    <edge id="E11" from="D" to="G" priority="-1">
        <lane id="E11_0" index="0" speed="13.89" length="189.60" shape="-296.80,-201.60 -107.20,-201.60"/>
    </edge>
    <edge id="E12" from="G" to="J" priority="-1">
        <lane id="E12_0" index="0" speed="13.89" length="185.60" shape="-92.80,-201.60 92.80,-201.60"/>
    </edge>
    <edge id="E13" from="J" to="M" priority="-1">
        <lane id="E13_0" index="0" speed="13.89" length="189.60" shape="107.20,-201.60 296.80,-201.60"/>
    </edge>
    <edge id="E14" from="L" to="M" priority="-1">
        <lane id="E14_0" index="0" speed="13.89" length="189.60" shape="298.40,-7.20 298.40,-196.80"/>
    </edge>
    <edge id="E15" from="E" to="F" priority="-1">
        <lane id="E15_0" index="0" speed="13.89" length="185.60" shape="-101.60,192.80 -101.60,7.20"/>
    </edge>
    <edge id="E16" from="F" to="G" priority="-1">
        <lane id="E16_0" index="0" speed="13.89" length="185.60" shape="-101.60,-7.20 -101.60,-192.80"/>
    </edge>
    <edge id="E17" from="H" to="I" priority="-1">
        <lane id="E17_0" index="0" speed="13.89" length="185.60" shape="98.40,192.80 98.40,7.20"/>
    </edge>
    <edge id="E18" from="I" to="J" priority="-1">
        <lane id="E18_0" index="0" speed="13.89" length="185.60" shape="98.40,-7.20 98.40,-192.80"/>
    </edge>
    <edge id="E19" from="Z" to="A" priority="-1">
        <lane id="E19_0" index="0" speed="13.89" length="10.00" shape="-510.00,-1.60 -500.00,-1.60"/>
    </edge>
    <edge id="E2" from="F" to="I" priority="-1">
        <lane id="E2_0" index="0" speed="13.89" length="185.60" shape="-92.80,-1.60 92.80,-1.60"/>
    </edge>
    <edge id="E20" from="N" to="O" priority="-1">
        <lane id="E20_0" index="0" speed="13.89" length="10.00" shape="500.00,-1.60 510.00,-1.60"/>
    </edge>
    <edge id="E3" from="I" to="L" priority="-1">
        <lane id="E3_0" index="0" speed="13.89" length="185.60" shape="107.20,-1.60 292.80,-1.60"/>
    </edge>
    <edge id="E4" from="L" to="N" priority="-1">
        <lane id="E4_0" index="0" speed="13.89" length="192.80" shape="307.20,-1.60 500.00,-1.60"/>
    </edge>
    <edge id="E5" from="B" to="C" priority="-1">
        <lane id="E5_0" index="0" speed="13.89" length="189.60" shape="-301.60,196.80 -301.60,7.20"/>
    </edge>
    <edge id="E6" from="B" to="E" priority="-1">
        <lane id="E6_0" index="0" speed="13.89" length="189.60" shape="-296.80,198.40 -107.20,198.40"/>
    </edge>
    <edge id="E7" from="E" to="H" priority="-1">
        <lane id="E7_0" index="0" speed="13.89" length="185.60" shape="-92.80,198.40 92.80,198.40"/>
    </edge>
    <edge id="E8" from="H" to="K" priority="-1">
        <lane id="E8_0" index="0" speed="13.89" length="189.60" shape="107.20,198.40 296.80,198.40"/>
    </edge>
    <edge id="E9" from="K" to="L" priority="-1">
        <lane id="E9_0" index="0" speed="13.89" length="189.60" shape="298.40,196.80 298.40,7.20"/>
    </edge>

    <junction id="A" type="priority" x="-500.00" y="0.00" incLanes="-E0_0 E19_0" intLanes=":A_0_0 :A_1_0" shape="-500.00,3.20 -500.00,-3.20 -500.00,3.20">
        <request index="0" response="00" foes="00" cont="0"/>
        <request index="1" response="00" foes="00" cont="0"/>
    </junction>
    <junction id="B" type="priority" x="-300.00" y="200.00" incLanes="-E6_0 -E5_0" intLanes=":B_0_0 :B_1_0" shape="-296.80,203.20 -296.80,196.80 -303.20,196.80 -302.49,200.36 -301.60,201.60 -300.36,202.49 -298.76,203.02">
        <request index="0" response="00" foes="00" cont="0"/>
        <request index="1" response="00" foes="00" cont="0"/>
    </junction>
    <junction id="C" type="priority" x="-300.00" y="0.00" incLanes="E5_0 -E1_0 -E10_0 E0_0" intLanes=":C_0_0 :C_1_0 :C_12_0 :C_3_0 :C_4_0 :C_5_0 :C_6_0 :C_7_0 :C_13_0 :C_9_0 :C_10_0 :C_11_0" shape="-303.20,7.20 -296.80,7.20 -296.36,4.98 -295.80,4.20 -295.02,3.64 -294.02,3.31 -292.80,3.20 -292.80,-3.20 -295.02,-3.64 -295.80,-4.20 -296.36,-4.98 -296.69,-5.98 -296.80,-7.20 -303.20,-7.20 -303.64,-4.98 -304.20,-4.20 -304.98,-3.64 -305.98,-3.31 -307.20,-3.20 -307.20,3.20 -304.98,3.64 -304.20,4.20 -303.64,4.98 -303.31,5.98">
        <request index="0"  response="000000000000" foes="000100010000" cont="0"/>
        <request index="1"  response="000000000000" foes="111100110000" cont="0"/>
        <request index="2"  response="000011000000" foes="110111110000" cont="1"/>
        <request index="3"  response="000010000000" foes="100010000000" cont="0"/>
        <request index="4"  response="000110000111" foes="100110000111" cont="0"/>
        <request index="5"  response="111110000110" foes="111110000110" cont="0"/>
        <request index="6"  response="000000000000" foes="010000000100" cont="0"/>
        <request index="7"  response="000000000000" foes="110000111100" cont="0"/>
        <request index="8"  response="000000000111" foes="110000110111" cont="1"/>
        <request index="9"  response="000000000010" foes="000000100010" cont="0"/>
        <request index="10" response="000111000110" foes="000111100110" cont="0"/>
        <request index="11" response="000110011110" foes="000110111110" cont="0"/>
    </junction>
    <junction id="D" type="priority" x="-300.00" y="-200.00" incLanes="E10_0 -E11_0" intLanes=":D_0_0 :D_1_0" shape="-303.20,-196.80 -296.80,-196.80 -296.80,-203.20 -300.36,-202.49 -301.60,-201.60 -302.49,-200.36 -303.02,-198.76">
        <request index="0" response="00" foes="00" cont="0"/>
        <request index="1" response="00" foes="00" cont="0"/>
    </junction>
    <junction id="E" type="priority" x="-100.00" y="200.00" incLanes="-E7_0 -E15_0 E6_0" intLanes=":E_0_0 :E_6_0 :E_2_0 :E_3_0 :E_4_0 :E_5_0" shape="-92.80,203.20 -92.80,196.80 -95.02,196.36 -95.80,195.80 -96.36,195.02 -96.69,194.02 -96.80,192.80 -103.20,192.80 -103.64,195.02 -104.20,195.80 -104.98,196.36 -105.98,196.69 -107.20,196.80 -107.20,203.20">
        <request index="0" response="000000" foes="001000" cont="0"/>
        <request index="1" response="110000" foes="111000" cont="1"/>
        <request index="2" response="100000" foes="100000" cont="0"/>
        <request index="3" response="100011" foes="100011" cont="0"/>
        <request index="4" response="000000" foes="000010" cont="0"/>
        <request index="5" response="000000" foes="001110" cont="0"/>
    </junction>
    <junction id="F" type="priority" x="-100.00" y="0.00" incLanes="E15_0 -E2_0 -E16_0 E1_0" intLanes=":F_0_0 :F_1_0 :F_12_0 :F_3_0 :F_4_0 :F_5_0 :F_6_0 :F_7_0 :F_13_0 :F_9_0 :F_10_0 :F_11_0" shape="-103.20,7.20 -96.80,7.20 -96.36,4.98 -95.80,4.20 -95.02,3.64 -94.02,3.31 -92.80,3.20 -92.80,-3.20 -95.02,-3.64 -95.80,-4.20 -96.36,-4.98 -96.69,-5.98 -96.80,-7.20 -103.20,-7.20 -103.64,-4.98 -104.20,-4.20 -104.98,-3.64 -105.98,-3.31 -107.20,-3.20 -107.20,3.20 -104.98,3.64 -104.20,4.20 -103.64,4.98 -103.31,5.98">
        <request index="0"  response="000000000000" foes="000100010000" cont="0"/>
        <request index="1"  response="000000000000" foes="111100110000" cont="0"/>
        <request index="2"  response="000011000000" foes="110111110000" cont="1"/>
        <request index="3"  response="000010000000" foes="100010000000" cont="0"/>
        <request index="4"  response="000110000111" foes="100110000111" cont="0"/>
        <request index="5"  response="111110000110" foes="111110000110" cont="0"/>
        <request index="6"  response="000000000000" foes="010000000100" cont="0"/>
        <request index="7"  response="000000000000" foes="110000111100" cont="0"/>