<additional>
        <laneAreaDetector id="-239842076#0" lane="-239842076#0_0" pos="0.0" length="74.31" freq ="1" file="dqn_detfile.out"/>
        <laneAreaDetector id="-239842076#1" lane="-239842076#1_0" pos="0.0" length="8.08" freq ="1" file="dqn_detfile.out"/>
        <laneAreaDetector id="-239842076#2" lane="-239842076#2_0" pos="0.0" length="135.90" freq ="1" file="dqn_detfile.out"/>
        <laneAreaDetector id="-239842076#3" lane="-239842076#3_0" pos="0.0" length="4.82" freq ="1" file="dqn_detfile.out"/>
        <laneAreaDetector id="-239842076#4" lane="-239842076#4_0" pos="0.0" length="24.41" freq ="1" file="dqn_detfile.out"/>
        <laneAreaDetector id="-239842076#5" lane="-239842076#5_0" pos="0.0" length="58.49" freq ="1" file="dqn_detfile.out"/>
        <laneAreaDetector id="-239842076#6" lane="-239842076#6_0" pos="0.0" length="52.68" freq ="1" file="dqn_detfile.out"/>
        <laneAreaDetector id="-239842076#7" lane="-239842076#7_0" pos="0.0" length="59.80" freq ="1" file="dqn_detfile.out"/>
        <laneAreaDetector id="-239842081#0" lane="-239842081#0_0" pos="0.0" length="9.28" freq ="1" file="dqn_detfile.out"/>
        <laneAreaDetector id="-239842081#1" lane="-239842081#1_0" pos="0.0" length="119.80" freq ="1" file="dqn_detfile.out"/>
        <laneAreaDetector id="-239842081#2" lane="-239842081#2_0" pos="0.0" length="131.03" freq ="1" file="dqn_detfile.out"/>
        <laneAreaDetector id="-240363126#0" lane="-240363126#0_0" pos="0.0" length="47.07" freq ="1" file="dqn_detfile.out"/>
        <laneAreaDetector id="-240363126#1" lane="-240363126#1_0" pos="0.0" length="26.08" freq ="1" file="dqn_detfile.out"/>
        <laneAreaDetector id="-240363129#0" lane="-240363129#0_0" pos="0.0" length="85.77" freq ="1" file="dqn_detfile.out"/>
        <laneAreaDetector id="-240363129#1" lane="-240363129#1_0" pos="0.0" length="55.19" freq ="1" file="dqn_detfile.out"/>
        <laneAreaDetector id="-240388157" lane="-240388157_0" pos="0.0" length="162.96" freq ="1" file="dqn_detfile.out"/>
        <laneAreaDetector id="-240388158#0" lane="-240388158#0_0" pos="0.0" length="172.03" freq ="1" file="dqn_detfile.out"/>
        <laneAreaDetector id="-240388158#1" lane="-240388158#1_0" pos="0.0" length="3.70" freq ="1" file="dqn_detfile.out"/>
        <laneAreaDetector id="-240388158#2" lane="-240388158#2_0" pos="0.0" length="110.10" freq ="1" file="dqn_detfile.out"/>
        <laneAreaDetector id="-240388159#0" lane="-240388159#0_0" pos="0.0" length="69.62" freq ="1" file="dqn_detfile.out"/>
        <laneAreaDetector id="-240388159#1" lane="-240388159#1_0" pos="0.0" length="102.39" freq ="1" file="dqn_detfile.out"/>
        <laneAreaDetector id="-240388160" lane="-240388160_0" pos="0.0" length="181.43" freq ="1" file="dqn_detfile.out"/>
        <laneAreaDetector id="-240388167#0" lane="-240388167#0_0" pos="0.0" length="165.86" freq ="1" file="dqn_detfile.out"/>
        <laneAreaDetector id="-240388167#1" lane="-240388167#1_0" pos="0.0" length="98.24" freq ="1" file="dqn_detfile.out"/>
        <laneAreaDetector id="-240388167#2" lane="-240388167#2_0" pos="0.0" length="70.17" freq ="1" file="dqn_detfile.out"/>
        <laneAreaDetector id="-240388167#3" lane="-240388167#3_0" pos="0.0" length="117.25" freq ="1" file="dqn_detfile.out"/>
        <laneAreaDetector id="-240392104#0" lane="-240392104#0_0" pos="0.0" length="178.27" freq ="1" file="dqn_detfile.out"/>
        <laneAreaDetector id="-240392104#1" lane="-240392104#1_0" pos="0.0" length="25.54" freq ="1" file="dqn_detfile.out"/>
        <laneAreaDetector id="-240392105#0" lane="-240392105#0_0" pos="0.0" length="59.60" freq ="1" file="dqn_detfile.out"/>
        <laneAreaDetector id="-240392105#1" lane="-240392105#1_0" pos="0.0" length="71.22" freq ="1" file="dqn_detfile.out"/>
        <laneAreaDetector id="-240506675" lane="-240506675_0" pos="0.0" length="257.96" freq ="1" file="dqn_detfile.out"/>
        <laneAreaDetector id="-240506679" lane="-240506679_0" pos="0.0" length="239.38" freq ="1" file="dqn_detfile.out"/>
        <laneAreaDetector id="-240510774" lane="-240510774_0" pos="0.0" length="59.51" freq ="1" file="dqn_detfile.out"/>
        <laneAreaDetector id="-240510777#0" lane="-240510777#0_0" pos="0.0" length="9.61" freq ="1" file="dqn_detfile.out"/>
        <laneAreaDetector id="-240510777#1" lane="-240510777#1_0" pos="0.0" length="77.80" freq ="1" file="dqn_detfile.out"/>
        <laneAreaDetector id="-240510789" lane="-240510789_0" pos="0.0" length="7.90" freq ="1" file="dqn_detfile.out"/>
        <laneAreaDetector id="-241204743#0" lane="-241204743#0_0" pos="0.0" length="421.54" freq ="1" file="dqn_detfile.out"/>
        <laneAreaDetector id="-241204743#1" lane="-241204743#1_0" pos="0.0" length="24.26" freq ="1" file="dqn_detfile.out"/>
        <laneAreaDetector id="-241204743#2" lane="-241204743#2_0" pos="0.0" length="336.56" freq ="1" file="dqn_detfile.out"/>
        <laneAreaDetector id="-243399011#0" lane="-243399011#0_0" pos="0.0" length="22.09" freq ="1" file="dqn_detfile.out"/>
        <laneAreaDetector id="-243399011#1" lane="-243399011#1_0" pos="0.0" length="107.55" freq ="1" file="dqn_detfile.out"/>
        <laneAreaDetector id="-243399011#2" lane="-243399011#2_0" pos="0.0" length="2.59" freq ="1" file="dqn_detfile.out"/>
        <laneAreaDetector id="-243399011#3" lane="-243399011#3_0" pos="0.0" length="109.70" freq ="1" file="dqn_detfile.out"/>
        <laneAreaDetector id="-243399011#4" lane="-243399011#4_0" pos="0.0" length="108.93" freq ="1" file="dqn_detfile.out"/>
        <laneAreaDetector id="-243443852#0" lane="-243443852#0_0" pos="0.0" length="65.23" freq ="1" file="dqn_detfile.out"/>
        <laneAreaDetector id="-243443852#1" lane="-243443852#1_0" pos="0.0" length="92.42" freq ="1" file="dqn_detfile.out"/>
        <laneAreaDetector id="-243443852#2" lane="-243443852#2_0" pos="0.0" length="94.90" freq ="1" file="dqn_detfile.out"/>
        <laneAreaDetector id="-243443852#3" lane="-243443852#3_0" pos="0.0" length="21.92" freq ="1" file="dqn_detfile.out"/>
        <laneAreaDetector id="-243443852#4" lane="-243443852#4_0" pos="0.0" length="58.24" freq ="1" file="dqn_detfile.out"/>
        <laneAreaDetector id="-243443852#5" lane="-243443852#5_0" pos="0.0" length="63.67" freq ="1" file="dqn_detfile.out"/>
        <laneAreaDetector id="-243443852#6" lane="-243443852#6_0" pos="0.0" length="34.38" freq ="1" file="dqn_detfile.out"/>
        <laneAreaDetector id="-243443852#7" lane="-243443852#7_0" pos="0.0" length="119.40" freq ="1" file="dqn_detfile.out"/>
        <laneAreaDetector id="-243463807#0" lane="-243463807#0_0" pos="0.0" length="299.17" freq ="1" file="dqn_detfile.out"/>
        <laneAreaDetector id="-243463807#1" lane="-243463807#1_0" pos="0.0" length="154.81" freq ="1" file="dqn_detfile.out"/>
        <laneAreaDetector id="-243463807#2" lane="-243463807#2_0" pos="0.0" length="53.72" freq ="1" file="dqn_detfile.out"/>
        <laneAreaDetector id="-243463807#3" lane="-243463807#3_0" pos="0.0" length="86.37" freq ="1" file="dqn_detfile.out"/>
        <laneAreaDetector id="-243463807#4" lane="-243463807#4_0" pos="0.0" length="131.12" freq ="1" file="dqn_detfile.out"/>
        <laneAreaDetector id="-243463811" lane="-243463811_0" pos="0.0" length="117.89" freq ="1" file="dqn_detfile.out"/>
        <laneAreaDetector id="-320980921#0" lane="-320980921#0_0" pos="0.0" length="93.10" freq ="1" file="dqn_detfile.out"/>
        <laneAreaDetector id="-320980921#1" lane="-320980921#1_0" pos="0.0" length="75.36" freq ="1" file="dqn_detfile.out"/>
        <laneAreaDetector id="-320980921#2" lane="-320980921#2_0" pos="0.0" length="129.58" freq ="1" file="dqn_detfile.out"/>
        <laneAreaDetector id="-320980926#0" lane="-320980926#0_0" pos="0.0" length="106.42" freq ="1" file="dqn_detfile.out"/>
        <laneAreaDetector id="-320980926#1" lane="-320980926#1_0" pos="0.0" length="98.79" freq ="1" file="dqn_detfile.out"/>
        <laneAreaDetector id="-320980931" lane="-320980931_0" pos="0.0" length="113.60" freq ="1" file="dqn_detfile.out"/>
        <laneAreaDetector id="-320980932#0" lane="-320980932#0_0" pos="0.0" length="17.99" freq ="1" file="dqn_detfile.out"/>
        <laneAreaDetector id="-320980932#1" lane="-320980932#1_0" pos="0.0" length="22.81" freq ="1" file="dqn_detfile.out"/>
        <laneAreaDetector id="-320980932#2" lane="-320980932#2_0" pos="0.0" length="148.39" freq ="1" file="dqn_detfile.out"/>
        <laneAreaDetector id="-320980932#3" lane="-320980932#3_0" pos="0.0" length="30.67" freq ="1" file="dqn_detfile.out"/>
        <laneAreaDetector id="-320980932#4" lane="-320980932#4_0" pos="0.0" length="179.90" freq ="1" file="dqn_detfile.out"/>
        <laneAreaDetector id="-320980933#0" lane="-320980933#0_0" pos="0.0" length="95.29" freq ="1" file="dqn_detfile.out"/>
        <laneAreaDetector id="-320980933#1" lane="-320980933#1_0" pos="0.0" length="6.41" freq ="1" file="dqn_detfile.out"/>
        <laneAreaDetector id="-320980933#2" lane="-320980933#2_0" pos="0.0" length="88.13" freq ="1" file="dqn_detfile.out"/>
        <laneAreaDetector id="-320980934" lane="-320980934_0" pos="0.0" length="81.72" freq ="1" file="dqn_detfile.out"/>
        <laneAreaDetector id="-320980935#0" lane="-320980935#0_0" pos="0.0" length="85.82" freq ="1" file="dqn_detfile.out"/>
        <laneAreaDetector id="-320980935#1" lane="-320980935#1_0" pos="0.0" length="56.13" freq ="1" file="dqn_detfile.out"/>
        <laneAreaDetector id="-320980936#0" lane="-320980936#0_0" pos="0.0" length="85.39" freq ="1" file="dqn_detfile.out"/>
        <laneAreaDetector id="-320980936#1" lane="-320980936#1_0" pos="0.0" length="39.96" freq ="1" file="dqn_detfile.out"/>
        <laneAreaDetector id="-320980936#2" lane="-320980936#2_0" pos="0.0" length="63.72" freq ="1" file="dqn_detfile.out"/>
        <laneAreaDetector id="-320980936#3" lane="-320980936#3_0" pos="0.0" length="198.04" freq ="1" file="dqn_detfile.out"/>
        <laneAreaDetector id="-320980937#0" lane="-320980937#0_0" pos="0.0" length="70.37" freq ="1" file="dqn_detfile.out"/>
        <laneAreaDetector id="-320980937#1" lane="-320980937#1_0" pos="0.0" length="205.54" freq ="1" file="dqn_detfile.out"/>
        <laneAreaDetector id="-395497867#0" lane="-395497867#0_0" pos="0.0" length="491.61" freq ="1" file="dqn_detfile.out"/>
        <laneAreaDetector id="-395497867#1" lane="-395497867#1_0" pos="0.0" length="161.03" freq ="1" file="dqn_detfile.out"/>
        <laneAreaDetector id="-395497867#2" lane="-395497867#2_0" pos="0.0" length="32.33" freq ="1" file="dqn_detfile.out"/>
        <laneAreaDetector id="-395957539#0" lane="-395957539#0_0" pos="0.0" length="48.93" freq ="1" file="dqn_detfile.out"/>
        <laneAreaDetector id="-395957539#1" lane="-395957539#1_0" pos="0.0" length="54.31" freq ="1" file="dqn_detfile.out"/>
        <laneAreaDetector id="-395957539#2" lane="-395957539#2_0" pos="0.0" length="23.67" freq ="1" file="dqn_detfile.out"/>
        <laneAreaDetector id="-395957539#3" lane="-395957539#3_0" pos="0.0" length="60.94" freq ="1" file="dqn_detfile.out"/>
        <laneAreaDetector id="-395957539#4" lane="-395957539#4_0" pos="0.0" length="133.08" freq ="1" file="dqn_detfile.out"/>
        <laneAreaDetector id="-395957541#0" lane="-395957541#0_0" pos="0.0" length="59.82" freq ="1" file="dqn_detfile.out"/>
        <laneAreaDetector id="-395957541#1" lane="-395957541#1_0" pos="0.0" length="55.20" freq ="1" file="dqn_detfile.out"/>
        <laneAreaDetector id="-395957541#2" lane="-395957541#2_0" pos="0.0" length="57.31" freq ="1" file="dqn_detfile.out"/>
        <laneAreaDetector id="-395957541#3" lane="-395957541#3_0" pos="0.0" length="66.24" freq ="1" file="dqn_detfile.out"/>
        <laneAreaDetector id="-395957542#0" lane="-395957542#0_0" pos="0.0" length="10.38" freq ="1" file="dqn_detfile.out"/>
        <laneAreaDetector id="-395957542#1" lane="-395957542#1_0" pos="0.0" length="79.41" freq ="1" file="dqn_detfile.out"/>
        <laneAreaDetector id="-395957543" lane="-395957543_0" pos="0.0" length="142.35" freq ="1" file="dqn_detfile.out"/>
        <laneAreaDetector id="-453674331" lane="-453674331_0" pos="0.0" length="45.46" freq ="1" file="dqn_detfile.out"/>
        <laneAreaDetector id="-453677330" lane="-453677330_0" pos="0.0" length="43.84" freq ="1" file="dqn_detfile.out"/>
        <laneAreaDetector id="-453897798" lane="-453897798_0" pos="0.0" length="33.41" freq ="1" file="dqn_detfile.out"/>
        <laneAreaDetector id="-453898256" lane="-453898256_0" pos="0.0" length="31.30" freq ="1" file="dqn_detfile.out"/>
        <laneAreaDetector id="-453922603" lane="-453922603_0" pos="0.0" length="26.00" freq ="1" file="dqn_detfile.out"/>
        <laneAreaDetector id="-454222936#0" lane="-454222936#0_0" pos="0.0" length="6.91" freq ="1" file="dqn_detfile.out"/>
        <laneAreaDetector id="-454222936#1" lane="-454222936#1_0" pos="0.0" length="144.34" freq ="1" file="dqn_detfile.out"/>
        <laneAreaDetector id="-454222936#2" lane="-454222936#2_0" pos="0.0" length="309.76" freq ="1" file="dqn_detfile.out"/>
        <laneAreaDetector id="-454222938" lane="-454222938_0" pos="0.0" length="312.54" freq ="1" file="dqn_detfile.out"/>
        <laneAreaDetector id="-454226038" lane="-454226038_0" pos="0.0" length="213.13" freq ="1" file="dqn_detfile.out"/>
        <laneAreaDetector id="-457158316#0" lane="-457158316#0_0" pos="0.0" length="115.00" freq ="1" file="dqn_detfile.out"/>
        <laneAreaDetector id="-457158316#1" lane="-457158316#1_0" pos="0.0" length="28.68" freq ="1" file="dqn_detfile.out"/>
        <laneAreaDetector id="-457863184#0" lane="-457863184#0_0" pos="0.0" length="59.56" freq ="1" file="dqn_detfile.out"/>
        <laneAreaDetector id="-457863184#1" lane="-457863184#1_0" pos="0.0" length="114.88" freq ="1" file="dqn_detfile.out"/>
        <laneAreaDetector id="-457863184#2" lane="-457863184#2_0" pos="0.0" length="8.77" freq ="1" file="dqn_detfile.out"/>
        <laneAreaDetector id="-457863184#3" lane="-457863184#3_0" pos="0.0" length="136.05" freq ="1" file="dqn_detfile.out"/>
        <laneAreaDetector id="-457869295#0" lane="-457869295#0_0" pos="0.0" length="123.06" freq ="1" file="dqn_detfile.out"/>
        <laneAreaDetector id="-457869295#1" lane="-457869295#1_0" pos="0.0" length="10.49" freq ="1" file="dqn_detfile.out"/>
        <laneAreaDetector id="-457869296" lane="-457869296_0" pos="0.0" length="51.80" freq ="1" file="dqn_detfile.out"/>
        <laneAreaDetector id="-458046371" lane="-458046371_0" pos="0.0" length="224.86" freq ="1" file="dqn_detfile.out"/>
        <laneAreaDetector id="-458050462#0" lane="-458050462#0_0" pos="0.0" length="154.98" freq ="1" file="dqn_detfile.out"/>
        <laneAreaDetector id="-458050462#1" lane="-458050462#1_0" pos="0.0" length="68.95" freq ="1" file="dqn_detfile.out"/>
        <laneAreaDetector id="-458050463" lane="-458050463_0" pos="0.0" length="113.00" freq ="1" file="dqn_detfile.out"/>
        <laneAreaDetector id="-458226302" lane="-458226302_0" pos="0.0" length="86.25" freq ="1" file="dqn_detfile.out"/>
        <laneAreaDetector id="-458243011#0" lane="-458243011#0_0" pos="0.0" length="81.21" freq ="1" file="dqn_detfile.out"/>
        <laneAreaDetector id="-458243011#1" lane="-458243011#1_0" pos="0.0" length="70.70" freq ="1" file="dqn_detfile.out"/>
        <laneAreaDetector id="-458401302" lane="-458401302_0" pos="0.0" length="67.90" freq ="1" file="dqn_detfile.out"/>
        <laneAreaDetector id="-458441685#0" lane="-458441685#0_0" pos="0.0" length="11.48" freq ="1" file="dqn_detfile.out"/>
        <laneAreaDetector id="-458441685#1" lane="-458441685#1_0" pos="0.0" length="18.89" freq ="1" file="dqn_detfile.out"/>
        <laneAreaDetector id="-458441685#2" lane="-458441685#2_0" pos="0.0" length="56.69" freq ="1" file="dqn_detfile.out"/>
        <laneAreaDetector id="-458441685#3" lane="-458441685#3_0" pos="0.0" length="76.88" freq ="1" file="dqn_detfile.out"/>
        <laneAreaDetector id="-458441685#4" lane="-458441685#4_0" pos="0.0" length="73.57" freq ="1" file="dqn_detfile.out"/>
        <laneAreaDetector id="-458458520" lane="-458458520_0" pos="0.0" length="99.00" freq ="1" file="dqn_detfile.out"/>
        <laneAreaDetector id="-458458521#0" lane="-458458521#0_0" pos="0.0" length="47.00" freq ="1" file="dqn_detfile.out"/>
        <laneAreaDetector id="-458458521#1" lane="-458458521#1_0" pos="0.0" length="105.01" freq ="1" file="dqn_detfile.out"/>
        <laneAreaDetector id="-458953930" lane="-458953930_0" pos="0.0" length="120.44" freq ="1" file="dqn_detfile.out"/>
        <laneAreaDetector id="-464199928" lane="-464199928_0" pos="0.0" length="51.44" freq ="1" file="dqn_detfile.out"/>
        <laneAreaDetector id="-467066854#0" lane="-467066854#0_0" pos="0.0" length="34.67" freq ="1" file="dqn_detfile.out"/>
        <laneAreaDetector id="-467066854#1" lane="-467066854#1_0" pos="0.0" length="75.63" freq ="1" file="dqn_detfile.out"/>
        <laneAreaDetector id="-467066854#2" lane="-467066854#2_0" pos="0.0" length="41.12" freq ="1" file="dqn_detfile.out"/>
        <laneAreaDetector id="-467066854#3" lane="-467066854#3_0" pos="0.0" length="100.68" freq ="1" file="dqn_detfile.out"/>
        <laneAreaDetector id="-478427207#0" lane="-478427207#0_0" pos="0.0" length="12.04" freq ="1" file="dqn_detfile.out"/>
        <laneAreaDetector id="-478427207#1" lane="-478427207#1_0" pos="0.0" length="78.36" freq ="1" file="dqn_detfile.out"/>
        <laneAreaDetector id="-478427207#2" lane="-478427207#2_0" pos="0.0" length="68.79" freq ="1" file="dqn_detfile.out"/>
        <laneAreaDetector id="-478427207#3" lane="-478427207#3_0" pos="0.0" length="67.97" freq ="1" file="dqn_detfile.out"/>
        <laneAreaDetector id="-478427207#4" lane="-478427207#4_0" pos="0.0" length="110.62" freq ="1" file="dqn_detfile.out"/>
        <laneAreaDetector id="-478427207#5" lane="-478427207#5_0" pos="0.0" length="9.08" freq ="1" file="dqn_detfile.out"/>
        <laneAreaDetector id="-478427207#6" lane="-478427207#6_0" pos="0.0" length="108.84" freq ="1" file="dqn_detfile.out"/>
        <laneAreaDetector id="-478427207#7" lane="-478427207#7_0" pos="0.0" length="277.55" freq ="1" file="dqn_detfile.out"/>
        <laneAreaDetector id="-708426662" lane="-708426662_0" pos="0.0" length="71.20" freq ="1" file="dqn_detfile.out"/>
        <laneAreaDetector id="-708426663" lane="-708426663_0" pos="0.0" length="102.18" freq ="1" file="dqn_detfile.out"/>
        <laneAreaDetector id="-79677810#0" lane="-79677810#0_0" pos="0.0" length="70.97" freq ="1" file="dqn_detfile.out"/>
        <laneAreaDetector id="-79677810#1" lane="-79677810#1_0" pos="0.0" length="7.00" freq ="1" file="dqn_detfile.out"/>
        <laneAreaDetector id="-79677810#2" lane="-79677810#2_0" pos="0.0" length="38.33" freq ="1" file="dqn_detfile.out"/>
        <laneAreaDetector id="-79677810#3" lane="-79677810#3_0" pos="0.0" length="59.27" freq ="1" file="dqn_detfile.out"/>
        <laneAreaDetector id="-79677810#4" lane="-79677810#4_0" pos="0.0" length="58.55" freq ="1" file="dqn_detfile.out"/>
        <laneAreaDetector id="-81824402#0" lane="-81824402#0_0" pos="0.0" length="293.97" freq ="1" file="dqn_detfile.out"/>
        <laneAreaDetector id="-81824402#1" lane="-81824402#1_0" pos="0.0" length="107.24" freq ="1" file="dqn_detfile.out"/>
        <laneAreaDetector id="-81824402#10" lane="-81824402#10_0" pos="0.0" length="344.92" freq ="1" file="dqn_detfile.out"/>
        <laneAreaDetector id="-81824402#2" lane="-81824402#2_0" pos="0.0" length="5.78" freq ="1" file="dqn_detfile.out"/>
        <laneAreaDetector id="-81824402#3" lane="-81824402#3_0" pos="0.0" length="8.74" freq ="1" file="dqn_detfile.out"/>
        <laneAreaDetector id="-81824402#4" lane="-81824402#4_0" pos="0.0" length="98.76" freq ="1" file="dqn_detfile.out"/>
        <laneAreaDetector id="-81824402#5" lane="-81824402#5_0" pos="0.0" length="173.72" freq ="1" file="dqn_detfile.out"/>
        <laneAreaDetector id="-81824402#6" lane="-81824402#6_0" pos="0.0" length="120.87" freq ="1" file="dqn_detfile.out"/>
        <laneAreaDetector id="-81824402#7" lane="-81824402#7_0" pos="0.0" length="60.14" freq ="1" file="dqn_detfile.out"/>
        <laneAreaDetector id="-81824402#8" lane="-81824402#8_0" pos="0.0" length="39.21" freq ="1" file="dqn_detfile.out"/>
        <laneAreaDetector id="-81824402#9" lane="-81824402#9_0" pos="0.0" length="71.16" freq ="1" file="dqn_detfile.out"/>
        <laneAreaDetector id="-82161589#0" lane="-82161589#0_0" pos="0.0" length="298.15" freq ="1" file="dqn_detfile.out"/>
        <laneAreaDetector id="-82161589#1" lane="-82161589#1_0" pos="0.0" length="106.31" freq ="1" file="dqn_detfile.out"/>
        <laneAreaDetector id="-936774302#0" lane="-936774302#0_0" pos="0.0" length="28.36" freq ="1" file="dqn_detfile.out"/>
        <laneAreaDetector id="-936774302#1" lane="-936774302#1_0" pos="0.0" length="8.67" freq ="1" file="dqn_detfile.out"/>
        <laneAreaDetector id="-937254714#0" lane="-937254714#0_0" pos="0.0" length="26.70" freq ="1" file="dqn_detfile.out"/>
        <laneAreaDetector id="-937254714#1" lane="-937254714#1_0" pos="0.0" length="8.96" freq ="1" file="dqn_detfile.out"/>
        <laneAreaDetector id="1021336270#0" lane="1021336270#0_0" pos="0.0" length="621.11" freq ="1" file="dqn_detfile.out"/>
        <laneAreaDetector id="1021336270#1" lane="1021336270#1_0" pos="0.0" length="170.41" freq ="1" file="dqn_detfile.out"/>
        <laneAreaDetector id="1021336271#0" lane="1021336271#0_0" pos="0.0" length="93.67" freq ="1" file="dqn_detfile.out"/>
        <laneAreaDetector id="1021336271#1" lane="1021336271#1_0" pos="0.0" length="19.70" freq ="1" file="dqn_detfile.out"/>
        <laneAreaDetector id="1021336271#2" lane="1021336271#2_0" pos="0.0" length="56.20" freq ="1" file="dqn_detfile.out"/>
        <laneAreaDetector id="1021336271#3" lane="1021336271#3_0" pos="0.0" length="158.83" freq ="1" file="dqn_detfile.out"/>
        <laneAreaDetector id="1021336271#4" lane="1021336271#4_0" pos="0.0" length="458.39" freq ="1" file="dqn_detfile.out"/>
        <laneAreaDetector id="239842076#0" lane="239842076#0_0" pos="0.0" length="74.31" freq ="1" file="dqn_detfile.out"/>
        <laneAreaDetector id="239842076#1" lane="239842076#1_0" pos="0.0" length="8.08" freq ="1" file="dqn_detfile.out"/>
        <laneAreaDetector id="239842076#2" lane="239842076#2_0" pos="0.0" length="135.90" freq ="1" file="dqn_detfile.out"/>
        <laneAreaDetector id="239842076#3" lane="239842076#3_0" pos="0.0" length="4.82" freq ="1" file="dqn_detfile.out"/>
        <laneAreaDetector id="239842076#4" lane="239842076#4_0" pos="0.0" length="24.41" freq ="1" file="dqn_detfile.out"/>
        <laneAreaDetector id="239842076#5" lane="239842076#5_0" pos="0.0" length="58.49" freq ="1" file="dqn_detfile.out"/>
        <laneAreaDetector id="239842076#6" lane="239842076#6_0" pos="0.0" length="52.68" freq ="1" file="dqn_detfile.out"/>
        <laneAreaDetector id="239842076#7" lane="239842076#7_0" pos="0.0" length="59.80" freq ="1" file="dqn_detfile.out"/>
        <laneAreaDetector id="239842081#0" lane="239842081#0_0" pos="0.0" length="9.28" freq ="1" file="dqn_detfile.out"/>
        <laneAreaDetector id="239842081#1" lane="239842081#1_0" pos="0.0" length="119.80" freq ="1" file="dqn_detfile.out"/>
        <laneAreaDetector id="239842081#2" lane="239842081#2_0" pos="0.0" length="131.03" freq ="1" file="dqn_detfile.out"/>
        <laneAreaDetector id="240363126#0" lane="240363126#0_0" pos="0.0" length="47.07" freq ="1" file="dqn_detfile.out"/>
        <laneAreaDetector id="240363126#1" lane="240363126#1_0" pos="0.0" length="26.08" freq ="1" file="dqn_detfile.out"/>
        <laneAreaDetector id="240363129#0" lane="240363129#0_0" pos="0.0" length="85.77" freq ="1" file="dqn_detfile.out"/>
        <laneAreaDetector id="240363129#1" lane="240363129#1_0" pos="0.0" length="55.19" freq ="1" file="dqn_detfile.out"/>
        <laneAreaDetector id="240388157" lane="240388157_0" pos="0.0" length="162.96" freq ="1" file="dqn_detfile.out"/>
        <laneAreaDetector id="240388158#0" lane="240388158#0_0" pos="0.0" length="172.03" freq ="1" file="dqn_detfile.out"/>
        <laneAreaDetector id="240388158#1" lane="240388158#1_0" pos="0.0" length="3.70" freq ="1" file="dqn_detfile.out"/>
        <laneAreaDetector id="240388158#2" lane="240388158#2_0" pos="0.0" length="110.10" freq ="1" file="dqn_detfile.out"/>
        <laneAreaDetector id="240388159#0" lane="240388159#0_0" pos="0.0" length="69.62" freq ="1" file="dqn_detfile.out"/>
        <laneAreaDetector id="240388159#1" lane="240388159#1_0" pos="0.0" length="102.39" freq ="1" file="dqn_detfile.out"/>
        <laneAreaDetector id="240388160" lane="240388160_0" pos="0.0" length="181.43" freq ="1" file="dqn_detfile.out"/>
        <laneAreaDetector id="240388167#0" lane="240388167#0_0" pos="0.0" length="165.86" freq ="1" file="dqn_detfile.out"/>
        <laneAreaDetector id="240388167#1" lane="240388167#1_0" pos="0.0" length="98.24" freq ="1" file="dqn_detfile.out"/>
        <laneAreaDetector id="240388167#2" lane="240388167#2_0" pos="0.0" length="70.17" freq ="1" file="dqn_detfile.out"/>
        <laneAreaDetector id="240388167#3" lane="240388167#3_0" pos="0.0" length="117.25" freq ="1" file="dqn_detfile.out"/>
        <laneAreaDetector id="240392104#0" lane="240392104#0_0" pos="0.0" length="178.27" freq ="1" file="dqn_detfile.out"/>
        <laneAreaDetector id="240392104#1" lane="240392104#1_0" pos="0.0" length="25.54" freq ="1" file="dqn_detfile.out"/>
        <laneAreaDetector id="240392105#0" lane="240392105#0_0" pos="0.0" length="59.60" freq ="1" file="dqn_detfile.out"/>
        <laneAreaDetector id="240392105#1" lane="240392105#1_0" pos="0.0" length="71.22" freq ="1" file="dqn_detfile.out"/>
        <laneAreaDetector id="240506675" lane="240506675_0" pos="0.0" length="257.96" freq ="1" file="dqn_detfile.out"/>
        <laneAreaDetector id="240506679" lane="240506679_0" pos="0.0" length="239.38" freq ="1" file="dqn_detfile.out"/>
        <laneAreaDetector id="240510774" lane="240510774_0" pos="0.0" length="59.51" freq ="1" file="dqn_detfile.out"/>
        <laneAreaDetector id="240510777#0" lane="240510777#0_0" pos="0.0" length="9.61" freq ="1" file="dqn_detfile.out"/>
        <laneAreaDetector id="240510777#1" lane="240510777#1_0" pos="0.0" length="77.80" freq ="1" file="dqn_detfile.out"/>
        <laneAreaDetector id="240510789" lane="240510789_0" pos="0.0" length="7.90" freq ="1" file="dqn_detfile.out"/>
        <laneAreaDetector id="240542394" lane="240542394_0" pos="0.0" length="146.74" freq ="1" file="dqn_detfile.out"/>
        <laneAreaDetector id="241204743#0" lane="241204743#0_0" pos="0.0" length="421.54" freq ="1" file="dqn_detfile.out"/>
        <laneAreaDetector id="241204743#1" lane="241204743#1_0" pos="0.0" length="24.26" freq ="1" file="dqn_detfile.out"/>
        <laneAreaDetector id="241204743#2" lane="241204743#2_0" pos="0.0" length="336.56" freq ="1" file="dqn_detfile.out"/>
        <laneAreaDetector id="242554513#0" lane="242554513#0_0" pos="0.0" length="57.72" freq ="1" file="dqn_detfile.out"/>
        <laneAreaDetector id="242554513#1" lane="242554513#1_0" pos="0.0" length="134.41" freq ="1" file="dqn_detfile.out"/>
        <laneAreaDetector id="242554516#0" lane="242554516#0_0" pos="0.0" length="133.82" freq ="1" file="dqn_detfile.out"/>
        <laneAreaDetector id="242554516#1" lane="242554516#1_0" pos="0.0" length="58.95" freq ="1" file="dqn_detfile.out"/>
        <laneAreaDetector id="243399011#0" lane="243399011#0_0" pos="0.0" length="22.09" freq ="1" file="dqn_detfile.out"/>
        <laneAreaDetector id="243399011#1" lane="243399011#1_0" pos="0.0" length="107.55" freq ="1" file="dqn_detfile.out"/>
        <laneAreaDetector id="243399011#2" lane="243399011#2_0" pos="0.0" length="2.59" freq ="1" file="dqn_detfile.out"/>
        <laneAreaDetector id="243399011#3" lane="243399011#3_0" pos="0.0" length="109.70" freq ="1" file="dqn_detfile.out"/>
        <laneAreaDetector id="243399011#4" lane="243399011#4_0" pos="0.0" length="108.93" freq ="1" file="dqn_detfile.out"/>
        <laneAreaDetector id="243443852#0" lane="243443852#0_0" pos="0.0" length="65.23" freq ="1" file="dqn_detfile.out"/>
        <laneAreaDetector id="243443852#1" lane="243443852#1_0" pos="0.0" length="92.42" freq ="1" file="dqn_detfile.out"/>
        <laneAreaDetector id="243443852#2" lane="243443852#2_0" pos="0.0" length="94.90" freq ="1" file="dqn_detfile.out"/>
        <laneAreaDetector id="243443852#3" lane="243443852#3_0" pos="0.0" length="21.92" freq ="1" file="dqn_detfile.out"/>
        <laneAreaDetector id="243443852#4" lane="243443852#4_0" pos="0.0" length="58.24" freq ="1" file="dqn_detfile.out"/>
        <laneAreaDetector id="243443852#5" lane="243443852#5_0" pos="0.0" length="63.67" freq ="1" file="dqn_detfile.out"/>
        <laneAreaDetector id="243443852#6" lane="243443852#6_0" pos="0.0" length="34.38" freq ="1" file="dqn_detfile.out"/>
        <laneAreaDetector id="243443852#7" lane="243443852#7_0" pos="0.0" length="119.40" freq ="1" file="dqn_detfile.out"/>
        <laneAreaDetector id="243463807#0" lane="243463807#0_0" pos="0.0" length="299.17" freq ="1" file="dqn_detfile.out"/>
        <laneAreaDetector id="243463807#1" lane="243463807#1_0" pos="0.0" length="154.81" freq ="1" file="dqn_detfile.out"/>
        <laneAreaDetector id="243463807#2" lane="243463807#2_0" pos="0.0" length="53.72" freq ="1" file="dqn_detfile.out"/>
        <laneAreaDetector id="243463807#3" lane="243463807#3_0" pos="0.0" length="86.37" freq ="1" file="dqn_detfile.out"/>
        <laneAreaDetector id="243463807#4" lane="243463807#4_0" pos="0.0" length="131.12" freq ="1" file="dqn_detfile.out"/>
        <laneAreaDetector id="243463811" lane="243463811_0" pos="0.0" length="117.89" freq ="1" file="dqn_detfile.out"/>